<?xml version="1.0" encoding="UTF-8"?>

<!-- generated on 2026-04-14T04:10:13.547930+00:00 by Eclipse SUMO netconvert 1.26.0
<netconvertConfiguration xmlns:xsi="http://www.w3.org/2001/XMLSchema-instance" xsi:noNamespaceSchemaLocation="http://sumo.dlr.de/xsd/netconvertConfiguration.xsd">

    <input>
        <node-files value="/Users/osborn/BIG PROJECT/ATCS-GH/simulation/corridor_nodes.nod.xml"/>
        <edge-files value="/Users/osborn/BIG PROJECT/ATCS-GH/simulation/corridor_edges.edg.xml"/>
    </input>

    <output>
        <output-file value="/Users/osborn/BIG PROJECT/ATCS-GH/simulation/corridor.net.xml"/>
    </output>

    <tls_building>
        <tls.default-type value="static"/>
    </tls_building>

    <pedestrian>
        <crossings.guess value="true"/>
        <crossings.guess.speed-threshold value="13.89"/>
    </pedestrian>

    <report>
        <no-warnings value="true"/>
    </report>

</netconvertConfiguration>
-->

<net version="1.20" junctionCornerDetail="5" walkingareas="true" limitTurnSpeed="5.50" xmlns:xsi="http://www.w3.org/2001/XMLSchema-instance" xsi:noNamespaceSchemaLocation="http://sumo.dlr.de/xsd/net_file.xsd">

    <location netOffset="1500.00,1500.00" convBoundary="0.00,0.00,3000.00,3600.00" origBoundary="-1500.00,-1500.00,1500.00,2100.00" projParameter="!"/>

    <edge id=":E0_0" function="internal">
        <lane id=":E0_0_0" index="0" disallow="pedestrian" speed="3.65" length="4.67" shape="3000.00,1498.40 3001.20,1499.20 3001.60,1500.00 3001.20,1500.80 3000.00,1501.60"/>
    </edge>
    <edge id=":E0_w0" function="walkingarea">
        <lane id=":E0_w0_0" index="0" allow="pedestrian" speed="2.78" length="14.30" width="1.50" shape="3000.00,1506.40 3000.00,1507.90 3000.00,1492.10 3000.00,1493.60"/>
    </edge>
    <edge id=":E1_0" function="internal">
        <lane id=":E1_0_0" index="0" disallow="pedestrian" speed="3.65" length="4.67" shape="2700.00,1798.40 2701.20,1799.20 2701.60,1800.00 2701.20,1800.80 2700.00,1801.60"/>
    </edge>
    <edge id=":E1_w0" function="walkingarea">
        <lane id=":E1_w0_0" index="0" allow="pedestrian" speed="2.78" length="14.30" width="1.50" shape="2700.00,1806.40 2700.00,1807.90 2700.00,1792.10 2700.00,1793.60"/>
    </edge>
    <edge id=":E2_0" function="internal">
        <lane id=":E2_0_0" index="0" disallow="pedestrian" speed="3.65" length="4.67" shape="3000.00,2098.40 3001.20,2099.20 3001.60,2100.00 3001.20,2100.80 3000.00,2101.60"/>
    </edge>
    <edge id=":E2_w0" function="walkingarea">
        <lane id=":E2_w0_0" index="0" allow="pedestrian" speed="2.78" length="7.90" width="1.50" shape="3000.00,2103.20 3000.00,2104.70 3000.00,2095.30 3000.00,2096.80"/>
    </edge>
    <edge id=":J0_0" function="internal">
        <lane id=":J0_0_0" index="0" disallow="pedestrian" speed="7.33" length="7.08" shape="1495.20,1510.40 1494.85,1506.55 1493.80,1503.80 1493.60,1503.61"/>
    </edge>
    <edge id=":J0_1" function="internal">
        <lane id=":J0_1_0" index="0" disallow="pedestrian" speed="13.89" length="20.80" shape="1495.20,1510.40 1495.20,1489.60"/>
        <lane id=":J0_1_1" index="1" disallow="pedestrian" speed="13.89" length="20.80" shape="1498.40,1510.40 1498.40,1489.60"/>
    </edge>
    <edge id=":J0_3" function="internal">
        <lane id=":J0_3_0" index="0" disallow="pedestrian" speed="9.26" length="5.01" shape="1498.40,1510.40 1499.11,1505.44"/>
    </edge>
    <edge id=":J0_4" function="internal">
        <lane id=":J0_4_0" index="0" disallow="pedestrian" speed="3.65" length="1.44" shape="1498.40,1510.40 1499.20,1509.20"/>
    </edge>
    <edge id=":J0_19" function="internal">
        <lane id=":J0_19_0" index="0" disallow="pedestrian" speed="7.33" length="4.64" shape="1493.60,1503.61 1492.05,1502.15 1489.60,1501.60"/>
    </edge>
    <edge id=":J0_20" function="internal">
        <lane id=":J0_20_0" index="0" disallow="pedestrian" speed="9.26" length="14.34" shape="1499.11,1505.44 1499.15,1505.15 1501.40,1501.40 1505.15,1499.15 1510.40,1498.40"/>
    </edge>
    <edge id=":J0_21" function="internal">
        <lane id=":J0_21_0" index="0" disallow="pedestrian" speed="3.65" length="3.23" shape="1499.20,1509.20 1500.00,1508.80 1500.80,1509.20 1501.60,1510.40"/>
    </edge>
    <edge id=":J0_5" function="internal">
        <lane id=":J0_5_0" index="0" disallow="pedestrian" speed="6.51" length="4.75" shape="1510.40,1504.80 1507.95,1505.15 1506.20,1506.20 1506.08,1506.40"/>
    </edge>
    <edge id=":J0_6" function="internal">
        <lane id=":J0_6_0" index="0" disallow="pedestrian" speed="11.11" length="21.12" shape="1510.40,1504.80 1504.12,1504.30 1499.80,1503.20 1495.59,1502.10 1489.60,1501.60"/>
    </edge>
    <edge id=":J0_7" function="internal">
        <lane id=":J0_7_0" index="0" disallow="pedestrian" speed="9.26" length="5.01" shape="1510.40,1501.60 1505.44,1500.89"/>
    </edge>
    <edge id=":J0_8" function="internal">
        <lane id=":J0_8_0" index="0" disallow="pedestrian" speed="3.65" length="1.44" shape="1510.40,1501.60 1509.20,1500.80"/>
    </edge>
    <edge id=":J0_22" function="internal">
        <lane id=":J0_22_0" index="0" disallow="pedestrian" speed="6.51" length="4.28" shape="1506.08,1506.40 1505.15,1507.95 1504.80,1510.40"/>
    </edge>
    <edge id=":J0_23" function="internal">
        <lane id=":J0_23_0" index="0" disallow="pedestrian" speed="9.26" length="14.34" shape="1505.44,1500.89 1505.15,1500.85 1501.40,1498.60 1499.15,1494.85 1498.40,1489.60"/>
    </edge>
    <edge id=":J0_24" function="internal">
        <lane id=":J0_24_0" index="0" disallow="pedestrian" speed="3.65" length="3.23" shape="1509.20,1500.80 1508.80,1500.00 1509.20,1499.20 1510.40,1498.40"/>
    </edge>
    <edge id=":J0_9" function="internal">
        <lane id=":J0_9_0" index="0" disallow="pedestrian" speed="6.51" length="4.75" shape="1504.80,1489.60 1505.15,1492.05 1506.20,1493.80 1506.40,1493.92"/>
    </edge>
    <edge id=":J0_10" function="internal">
        <lane id=":J0_10_0" index="0" disallow="pedestrian" speed="13.89" length="20.80" shape="1504.80,1489.60 1504.80,1510.40"/>
        <lane id=":J0_10_1" index="1" disallow="pedestrian" speed="13.89" length="20.80" shape="1501.60,1489.60 1501.60,1510.40"/>
    </edge>
    <edge id=":J0_12" function="internal">
        <lane id=":J0_12_0" index="0" disallow="pedestrian" speed="9.26" length="5.01" shape="1501.60,1489.60 1500.89,1494.56"/>
    </edge>
    <edge id=":J0_13" function="internal">
        <lane id=":J0_13_0" index="0" disallow="pedestrian" speed="3.65" length="1.44" shape="1501.60,1489.60 1500.80,1490.80"/>
    </edge>
    <edge id=":J0_25" function="internal">
        <lane id=":J0_25_0" index="0" disallow="pedestrian" speed="6.51" length="4.28" shape="1506.40,1493.92 1507.95,1494.85 1510.40,1495.20"/>
    </edge>
    <edge id=":J0_26" function="internal">
        <lane id=":J0_26_0" index="0" disallow="pedestrian" speed="9.26" length="14.34" shape="1500.89,1494.56 1500.85,1494.85 1498.60,1498.60 1494.85,1500.85 1489.60,1501.60"/>
    </edge>
    <edge id=":J0_27" function="internal">
        <lane id=":J0_27_0" index="0" disallow="pedestrian" speed="3.65" length="3.23" shape="1500.80,1490.80 1500.00,1491.20 1499.20,1490.80 1498.40,1489.60"/>
    </edge>
    <edge id=":J0_14" function="internal">
        <lane id=":J0_14_0" index="0" disallow="pedestrian" speed="7.33" length="7.70" shape="1489.60,1498.40 1492.05,1497.85 1493.80,1496.20 1494.79,1493.60"/>
    </edge>
    <edge id=":J0_15" function="internal">
        <lane id=":J0_15_0" index="0" disallow="pedestrian" speed="11.11" length="20.96" shape="1489.60,1498.40 1495.59,1497.90 1499.80,1496.80 1504.12,1495.70 1510.40,1495.20"/>
        <lane id=":J0_15_1" index="1" disallow="pedestrian" speed="11.11" length="20.96" shape="1489.60,1498.40 1510.40,1498.40"/>
    </edge>
    <edge id=":J0_17" function="internal">
        <lane id=":J0_17_0" index="0" disallow="pedestrian" speed="9.26" length="6.01" shape="1489.60,1498.40 1494.85,1499.15 1495.45,1499.51"/>
    </edge>
    <edge id=":J0_18" function="internal">
        <lane id=":J0_18_0" index="0" disallow="pedestrian" speed="3.65" length="1.44" shape="1489.60,1498.40 1490.80,1499.20"/>
    </edge>
    <edge id=":J0_28" function="internal">
        <lane id=":J0_28_0" index="0" disallow="pedestrian" speed="7.33" length="4.03" shape="1494.79,1493.60 1494.85,1493.45 1495.20,1489.60"/>
    </edge>
    <edge id=":J0_29" function="internal">
        <lane id=":J0_29_0" index="0" disallow="pedestrian" speed="9.26" length="13.35" shape="1495.45,1499.51 1498.60,1501.40 1500.85,1505.15 1501.60,1510.40"/>
    </edge>
    <edge id=":J0_30" function="internal">
        <lane id=":J0_30_0" index="0" disallow="pedestrian" speed="3.65" length="3.23" shape="1490.80,1499.20 1491.20,1500.00 1490.80,1500.80 1489.60,1501.60"/>
    </edge>
    <edge id=":J0_c0" function="crossing" crossingEdges="ACH_J0toJ1 ACH_J1toJ0">
        <lane id=":J0_c0_0" index="0" allow="pedestrian" speed="2.78" length="12.80" width="4.00" shape="1506.40,1508.40 1493.60,1508.40" outlineShape="1506.50,1510.40 1493.50,1510.40 1493.49,1508.20 1493.16,1506.40 1493.60,1506.40 1506.40,1506.40 1508.51,1506.73 1508.18,1506.84 1507.40,1507.40 1506.84,1508.18 1506.51,1509.18"/>
    </edge>
    <edge id=":J0_c1" function="crossing" crossingEdges="AGG_J0toE AGG_E2J0">
        <lane id=":J0_c1_0" index="0" allow="pedestrian" speed="2.78" length="12.80" width="4.00" shape="1508.40,1493.60 1508.40,1506.40" outlineShape="1510.40,1493.50 1510.40,1506.50 1509.18,1506.51 1508.18,1506.84 1507.40,1507.40 1506.84,1508.18 1506.73,1508.51 1506.40,1506.40 1506.40,1493.60 1506.73,1491.49 1506.84,1491.82 1507.40,1492.60 1508.18,1493.16 1509.18,1493.49"/>
    </edge>
    <edge id=":J0_c2" function="crossing" crossingEdges="ACH_J0toS ACH_S2J0">
        <lane id=":J0_c2_0" index="0" allow="pedestrian" speed="2.78" length="12.80" width="4.00" shape="1493.60,1491.60 1506.40,1491.60" outlineShape="1493.50,1489.60 1506.50,1489.60 1506.51,1490.82 1506.84,1491.82 1507.40,1492.60 1508.18,1493.16 1508.51,1493.27 1506.40,1493.60 1493.60,1493.60 1493.16,1493.60 1493.49,1491.80"/>
    </edge>
    <edge id=":J0_c3" function="crossing" crossingEdges="GUG_J0toW GUG_W2J0">
        <lane id=":J0_c3_0" index="0" allow="pedestrian" speed="2.78" length="6.40" width="4.00" shape="1491.60,1503.20 1491.60,1496.80" outlineShape="1489.60,1503.30 1489.60,1496.70 1490.82,1496.60 1491.82,1496.00 1492.60,1495.00 1492.80,1494.48 1493.60,1496.80 1493.60,1503.20 1492.80,1505.52 1492.60,1505.00 1491.82,1504.00 1490.82,1503.40"/>
    </edge>
    <edge id=":J0_w0" function="walkingarea">
        <lane id=":J0_w0_0" index="0" allow="pedestrian" speed="2.78" length="5.06" width="4.00" shape="1489.60,1503.20 1489.60,1504.70 1492.10,1510.40 1493.60,1510.40 1493.49,1508.20 1493.16,1506.40 1492.60,1505.00 1491.82,1504.00 1490.82,1503.40"/>
    </edge>
    <edge id=":J0_w1" function="walkingarea">
        <lane id=":J0_w1_0" index="0" allow="pedestrian" speed="2.78" length="3.35" width="4.00" shape="1506.40,1510.40 1507.90,1510.40 1510.40,1507.90 1510.40,1506.40 1509.18,1506.51 1508.18,1506.84 1507.40,1507.40 1506.84,1508.18 1506.51,1509.18"/>
    </edge>
    <edge id=":J0_w2" function="walkingarea">
        <lane id=":J0_w2_0" index="0" allow="pedestrian" speed="2.78" length="3.35" width="4.00" shape="1510.40,1493.60 1510.40,1492.10 1507.90,1489.60 1506.40,1489.60 1506.51,1490.82 1506.84,1491.82 1507.40,1492.60 1508.18,1493.16 1509.18,1493.49"/>
    </edge>
    <edge id=":J0_w3" function="walkingarea">
        <lane id=":J0_w3_0" index="0" allow="pedestrian" speed="2.78" length="5.06" width="4.00" shape="1493.60,1489.60 1492.10,1489.60 1489.60,1495.30 1489.60,1496.80 1490.82,1496.60 1491.82,1496.00 1492.60,1495.00 1493.16,1493.60 1493.49,1491.80"/>
    </edge>
    <edge id=":J1_0" function="internal">
        <lane id=":J1_0_0" index="0" disallow="pedestrian" speed="6.51" length="4.75" shape="1495.20,1810.40 1494.85,1807.95 1493.80,1806.20 1493.60,1806.08"/>
    </edge>
    <edge id=":J1_1" function="internal">
        <lane id=":J1_1_0" index="0" disallow="pedestrian" speed="13.89" length="20.80" shape="1495.20,1810.40 1495.20,1789.60"/>
        <lane id=":J1_1_1" index="1" disallow="pedestrian" speed="13.89" length="20.80" shape="1498.40,1810.40 1498.40,1789.60"/>
    </edge>
    <edge id=":J1_3" function="internal">
        <lane id=":J1_3_0" index="0" disallow="pedestrian" speed="9.26" length="5.01" shape="1498.40,1810.40 1499.11,1805.44"/>
    </edge>
    <edge id=":J1_4" function="internal">
        <lane id=":J1_4_0" index="0" disallow="pedestrian" speed="3.65" length="1.44" shape="1498.40,1810.40 1499.20,1809.20"/>
    </edge>
    <edge id=":J1_20" function="internal">
        <lane id=":J1_20_0" index="0" disallow="pedestrian" speed="6.51" length="4.28" shape="1493.60,1806.08 1492.05,1805.15 1489.60,1804.80"/>
    </edge>
    <edge id=":J1_21" function="internal">
        <lane id=":J1_21_0" index="0" disallow="pedestrian" speed="9.26" length="14.34" shape="1499.11,1805.44 1499.15,1805.15 1501.40,1801.40 1505.15,1799.15 1510.40,1798.40"/>
    </edge>
    <edge id=":J1_22" function="internal">
        <lane id=":J1_22_0" index="0" disallow="pedestrian" speed="3.65" length="3.23" shape="1499.20,1809.20 1500.00,1808.80 1500.80,1809.20 1501.60,1810.40"/>
    </edge>
    <edge id=":J1_5" function="internal">
        <lane id=":J1_5_0" index="0" disallow="pedestrian" speed="6.51" length="4.75" shape="1510.40,1804.80 1507.95,1805.15 1506.20,1806.20 1506.08,1806.40"/>
    </edge>
    <edge id=":J1_6" function="internal">
        <lane id=":J1_6_0" index="0" disallow="pedestrian" speed="11.11" length="20.80" shape="1510.40,1804.80 1489.60,1804.80"/>
        <lane id=":J1_6_1" index="1" disallow="pedestrian" speed="11.11" length="20.80" shape="1510.40,1801.60 1489.60,1801.60"/>
    </edge>
    <edge id=":J1_8" function="internal">
        <lane id=":J1_8_0" index="0" disallow="pedestrian" speed="9.26" length="5.01" shape="1510.40,1801.60 1505.44,1800.89"/>
    </edge>
    <edge id=":J1_9" function="internal">
        <lane id=":J1_9_0" index="0" disallow="pedestrian" speed="3.65" length="1.44" shape="1510.40,1801.60 1509.20,1800.80"/>
    </edge>
    <edge id=":J1_23" function="internal">
        <lane id=":J1_23_0" index="0" disallow="pedestrian" speed="6.51" length="4.28" shape="1506.08,1806.40 1505.15,1807.95 1504.80,1810.40"/>
    </edge>
    <edge id=":J1_24" function="internal">
        <lane id=":J1_24_0" index="0" disallow="pedestrian" speed="9.26" length="14.34" shape="1505.44,1800.89 1505.15,1800.85 1501.40,1798.60 1499.15,1794.85 1498.40,1789.60"/>
    </edge>
    <edge id=":J1_25" function="internal">
        <lane id=":J1_25_0" index="0" disallow="pedestrian" speed="3.65" length="3.23" shape="1509.20,1800.80 1508.80,1800.00 1509.20,1799.20 1510.40,1798.40"/>
    </edge>
    <edge id=":J1_10" function="internal">
        <lane id=":J1_10_0" index="0" disallow="pedestrian" speed="6.51" length="4.75" shape="1504.80,1789.60 1505.15,1792.05 1506.20,1793.80 1506.40,1793.92"/>
    </edge>
    <edge id=":J1_11" function="internal">
        <lane id=":J1_11_0" index="0" disallow="pedestrian" speed="13.89" length="20.80" shape="1504.80,1789.60 1504.80,1810.40"/>
        <lane id=":J1_11_1" index="1" disallow="pedestrian" speed="13.89" length="20.80" shape="1501.60,1789.60 1501.60,1810.40"/>
    </edge>
    <edge id=":J1_13" function="internal">
        <lane id=":J1_13_0" index="0" disallow="pedestrian" speed="9.26" length="5.01" shape="1501.60,1789.60 1500.89,1794.56"/>
    </edge>
    <edge id=":J1_14" function="internal">
        <lane id=":J1_14_0" index="0" disallow="pedestrian" speed="3.65" length="1.44" shape="1501.60,1789.60 1500.80,1790.80"/>
    </edge>
    <edge id=":J1_26" function="internal">
        <lane id=":J1_26_0" index="0" disallow="pedestrian" speed="6.51" length="4.28" shape="1506.40,1793.92 1507.95,1794.85 1510.40,1795.20"/>
    </edge>
    <edge id=":J1_27" function="internal">
        <lane id=":J1_27_0" index="0" disallow="pedestrian" speed="9.26" length="14.34" shape="1500.89,1794.56 1500.85,1794.85 1498.60,1798.60 1494.85,1800.85 1489.60,1801.60"/>
    </edge>
    <edge id=":J1_28" function="internal">
        <lane id=":J1_28_0" index="0" disallow="pedestrian" speed="3.65" length="3.23" shape="1500.80,1790.80 1500.00,1791.20 1499.20,1790.80 1498.40,1789.60"/>
    </edge>
    <edge id=":J1_15" function="internal">
        <lane id=":J1_15_0" index="0" disallow="pedestrian" speed="6.51" length="4.75" shape="1489.60,1795.20 1492.05,1794.85 1493.80,1793.80 1493.92,1793.60"/>
    </edge>
    <edge id=":J1_16" function="internal">
        <lane id=":J1_16_0" index="0" disallow="pedestrian" speed="11.11" length="20.80" shape="1489.60,1795.20 1510.40,1795.20"/>
        <lane id=":J1_16_1" index="1" disallow="pedestrian" speed="11.11" length="20.80" shape="1489.60,1798.40 1510.40,1798.40"/>
    </edge>
    <edge id=":J1_18" function="internal">
        <lane id=":J1_18_0" index="0" disallow="pedestrian" speed="9.26" length="5.01" shape="1489.60,1798.40 1494.56,1799.11"/>
    </edge>
    <edge id=":J1_19" function="internal">
        <lane id=":J1_19_0" index="0" disallow="pedestrian" speed="3.65" length="1.44" shape="1489.60,1798.40 1490.80,1799.20"/>
    </edge>
    <edge id=":J1_29" function="internal">
        <lane id=":J1_29_0" index="0" disallow="pedestrian" speed="6.51" length="4.28" shape="1493.92,1793.60 1494.85,1792.05 1495.20,1789.60"/>
    </edge>
    <edge id=":J1_30" function="internal">
        <lane id=":J1_30_0" index="0" disallow="pedestrian" speed="9.26" length="14.34" shape="1494.56,1799.11 1494.85,1799.15 1498.60,1801.40 1500.85,1805.15 1501.60,1810.40"/>
    </edge>
    <edge id=":J1_31" function="internal">
        <lane id=":J1_31_0" index="0" disallow="pedestrian" speed="3.65" length="3.23" shape="1490.80,1799.20 1491.20,1800.00 1490.80,1800.80 1489.60,1801.60"/>
    </edge>
    <edge id=":J1_c0" function="crossing" crossingEdges="ACH_J1toJ2 ACH_J2toJ1">
        <lane id=":J1_c0_0" index="0" allow="pedestrian" speed="2.78" length="12.80" width="4.00" shape="1506.40,1808.40 1493.60,1808.40" outlineShape="1506.50,1810.40 1493.50,1810.40 1493.49,1809.18 1493.16,1808.18 1492.60,1807.40 1491.82,1806.84 1491.49,1806.73 1493.60,1806.40 1506.40,1806.40 1508.51,1806.73 1508.18,1806.84 1507.40,1807.40 1506.84,1808.18 1506.51,1809.18"/>
    </edge>
    <edge id=":J1_c1" function="crossing" crossingEdges="ASD_J1toE ASD_E2J1">
        <lane id=":J1_c1_0" index="0" allow="pedestrian" speed="2.78" length="12.80" width="4.00" shape="1508.40,1793.60 1508.40,1806.40" outlineShape="1510.40,1793.50 1510.40,1806.50 1509.18,1806.51 1508.18,1806.84 1507.40,1807.40 1506.84,1808.18 1506.73,1808.51 1506.40,1806.40 1506.40,1793.60 1506.73,1791.49 1506.84,1791.82 1507.40,1792.60 1508.18,1793.16 1509.18,1793.49"/>
    </edge>
    <edge id=":J1_c2" function="crossing" crossingEdges="ACH_J1toJ0 ACH_J0toJ1">
        <lane id=":J1_c2_0" index="0" allow="pedestrian" speed="2.78" length="12.80" width="4.00" shape="1493.60,1791.60 1506.40,1791.60" outlineShape="1493.50,1789.60 1506.50,1789.60 1506.51,1790.82 1506.84,1791.82 1507.40,1792.60 1508.18,1793.16 1508.51,1793.27 1506.40,1793.60 1493.60,1793.60 1491.49,1793.27 1491.82,1793.16 1492.60,1792.60 1493.16,1791.82 1493.49,1790.82"/>
    </edge>
    <edge id=":J1_c3" function="crossing" crossingEdges="RNG_J1toW RNG_W2J1">
        <lane id=":J1_c3_0" index="0" allow="pedestrian" speed="2.78" length="12.80" width="4.00" shape="1491.60,1806.40 1491.60,1793.60" outlineShape="1489.60,1806.50 1489.60,1793.50 1490.82,1793.49 1491.82,1793.16 1492.60,1792.60 1493.16,1791.82 1493.27,1791.49 1493.60,1793.60 1493.60,1806.40 1493.27,1808.51 1493.16,1808.18 1492.60,1807.40 1491.82,1806.84 1490.82,1806.51"/>
    </edge>
    <edge id=":J1_w0" function="walkingarea">
        <lane id=":J1_w0_0" index="0" allow="pedestrian" speed="2.78" length="3.35" width="4.00" shape="1489.60,1806.40 1489.60,1807.90 1492.10,1810.40 1493.60,1810.40 1493.49,1809.18 1493.16,1808.18 1492.60,1807.40 1491.82,1806.84 1490.82,1806.51"/>
    </edge>
    <edge id=":J1_w1" function="walkingarea">
        <lane id=":J1_w1_0" index="0" allow="pedestrian" speed="2.78" length="3.35" width="4.00" shape="1506.40,1810.40 1507.90,1810.40 1510.40,1807.90 1510.40,1806.40 1509.18,1806.51 1508.18,1806.84 1507.40,1807.40 1506.84,1808.18 1506.51,1809.18"/>
    </edge>
    <edge id=":J1_w2" function="walkingarea">
        <lane id=":J1_w2_0" index="0" allow="pedestrian" speed="2.78" length="3.35" width="4.00" shape="1510.40,1793.60 1510.40,1792.10 1507.90,1789.60 1506.40,1789.60 1506.51,1790.82 1506.84,1791.82 1507.40,1792.60 1508.18,1793.16 1509.18,1793.49"/>
    </edge>
    <edge id=":J1_w3" function="walkingarea">
        <lane id=":J1_w3_0" index="0" allow="pedestrian" speed="2.78" length="3.35" width="4.00" shape="1493.60,1789.60 1492.10,1789.60 1489.60,1792.10 1489.60,1793.60 1490.82,1793.49 1491.82,1793.16 1492.60,1792.60 1493.16,1791.82 1493.49,1790.82"/>
    </edge>
    <edge id=":J2_0" function="internal">
        <lane id=":J2_0_0" index="0" disallow="pedestrian" speed="6.51" length="4.75" shape="1495.20,2107.20 1494.85,2104.75 1493.80,2103.00 1493.60,2102.88"/>
    </edge>
    <edge id=":J2_1" function="internal">
        <lane id=":J2_1_0" index="0" disallow="pedestrian" speed="13.89" length="14.40" shape="1495.20,2107.20 1495.20,2092.80"/>
        <lane id=":J2_1_1" index="1" disallow="pedestrian" speed="13.89" length="14.40" shape="1498.40,2107.20 1498.40,2092.80"/>
    </edge>
    <edge id=":J2_3" function="internal">
        <lane id=":J2_3_0" index="0" disallow="pedestrian" speed="8.67" length="3.71" shape="1498.40,2107.20 1499.11,2103.56"/>
    </edge>
    <edge id=":J2_4" function="internal">
        <lane id=":J2_4_0" index="0" disallow="pedestrian" speed="3.65" length="1.44" shape="1498.40,2107.20 1499.20,2106.00"/>
    </edge>
    <edge id=":J2_18" function="internal">
        <lane id=":J2_18_0" index="0" disallow="pedestrian" speed="6.51" length="4.28" shape="1493.60,2102.88 1492.05,2101.95 1489.60,2101.60"/>
    </edge>
    <edge id=":J2_19" function="internal">
        <lane id=":J2_19_0" index="0" disallow="pedestrian" speed="8.67" length="13.14" shape="1499.11,2103.56 1499.15,2103.35 1501.40,2100.60 1505.15,2098.95 1510.40,2098.40"/>
    </edge>
    <edge id=":J2_20" function="internal">
        <lane id=":J2_20_0" index="0" disallow="pedestrian" speed="3.65" length="3.23" shape="1499.20,2106.00 1500.00,2105.60 1500.80,2106.00 1501.60,2107.20"/>
    </edge>
    <edge id=":J2_5" function="internal">
        <lane id=":J2_5_0" index="0" disallow="pedestrian" speed="6.51" length="4.75" shape="1510.40,2101.60 1507.95,2101.95 1506.20,2103.00 1506.08,2103.20"/>
    </edge>
    <edge id=":J2_6" function="internal">
        <lane id=":J2_6_0" index="0" disallow="pedestrian" speed="11.11" length="20.80" shape="1510.40,2101.60 1489.60,2101.60"/>
    </edge>
    <edge id=":J2_7" function="internal">
        <lane id=":J2_7_0" index="0" disallow="pedestrian" speed="8.67" length="5.56" shape="1510.40,2101.60 1505.15,2101.05 1504.89,2100.94"/>
    </edge>
    <edge id=":J2_8" function="internal">
        <lane id=":J2_8_0" index="0" disallow="pedestrian" speed="3.65" length="1.44" shape="1510.40,2101.60 1509.20,2100.80"/>
    </edge>
    <edge id=":J2_21" function="internal">
        <lane id=":J2_21_0" index="0" disallow="pedestrian" speed="6.51" length="4.28" shape="1506.08,2103.20 1505.15,2104.75 1504.80,2107.20"/>
    </edge>
    <edge id=":J2_22" function="internal">
        <lane id=":J2_22_0" index="0" disallow="pedestrian" speed="8.67" length="11.29" shape="1504.89,2100.94 1501.40,2099.40 1499.15,2096.65 1498.40,2092.80"/>
    </edge>
    <edge id=":J2_23" function="internal">
        <lane id=":J2_23_0" index="0" disallow="pedestrian" speed="3.65" length="3.23" shape="1509.20,2100.80 1508.80,2100.00 1509.20,2099.20 1510.40,2098.40"/>
    </edge>
    <edge id=":J2_9" function="internal">
        <lane id=":J2_9_0" index="0" disallow="pedestrian" speed="6.51" length="4.75" shape="1504.80,2092.80 1505.15,2095.25 1506.20,2097.00 1506.40,2097.12"/>
    </edge>
    <edge id=":J2_10" function="internal">
        <lane id=":J2_10_0" index="0" disallow="pedestrian" speed="13.89" length="14.40" shape="1504.80,2092.80 1504.80,2107.20"/>
        <lane id=":J2_10_1" index="1" disallow="pedestrian" speed="13.89" length="14.40" shape="1501.60,2092.80 1501.60,2107.20"/>
    </edge>
    <edge id=":J2_12" function="internal">
        <lane id=":J2_12_0" index="0" disallow="pedestrian" speed="8.67" length="3.71" shape="1501.60,2092.80 1500.89,2096.44"/>
    </edge>
    <edge id=":J2_13" function="internal">
        <lane id=":J2_13_0" index="0" disallow="pedestrian" speed="3.65" length="1.44" shape="1501.60,2092.80 1500.80,2094.00"/>
    </edge>
    <edge id=":J2_24" function="internal">
        <lane id=":J2_24_0" index="0" disallow="pedestrian" speed="6.51" length="4.28" shape="1506.40,2097.12 1507.95,2098.05 1510.40,2098.40"/>
    </edge>
    <edge id=":J2_25" function="internal">
        <lane id=":J2_25_0" index="0" disallow="pedestrian" speed="8.67" length="13.14" shape="1500.89,2096.44 1500.85,2096.65 1498.60,2099.40 1494.85,2101.05 1489.60,2101.60"/>
    </edge>
    <edge id=":J2_26" function="internal">
        <lane id=":J2_26_0" index="0" disallow="pedestrian" speed="3.65" length="3.23" shape="1500.80,2094.00 1500.00,2094.40 1499.20,2094.00 1498.40,2092.80"/>
    </edge>
    <edge id=":J2_14" function="internal">
        <lane id=":J2_14_0" index="0" disallow="pedestrian" speed="6.51" length="4.75" shape="1489.60,2098.40 1492.05,2098.05 1493.80,2097.00 1493.92,2096.80"/>
    </edge>
    <edge id=":J2_15" function="internal">
        <lane id=":J2_15_0" index="0" disallow="pedestrian" speed="11.11" length="20.80" shape="1489.60,2098.40 1510.40,2098.40"/>
    </edge>
    <edge id=":J2_16" function="internal">
        <lane id=":J2_16_0" index="0" disallow="pedestrian" speed="8.67" length="5.56" shape="1489.60,2098.40 1494.85,2098.95 1495.11,2099.06"/>
    </edge>
    <edge id=":J2_17" function="internal">
        <lane id=":J2_17_0" index="0" disallow="pedestrian" speed="3.65" length="1.44" shape="1489.60,2098.40 1490.80,2099.20"/>
    </edge>
    <edge id=":J2_27" function="internal">
        <lane id=":J2_27_0" index="0" disallow="pedestrian" speed="6.51" length="4.28" shape="1493.92,2096.80 1494.85,2095.25 1495.20,2092.80"/>
    </edge>
    <edge id=":J2_28" function="internal">
        <lane id=":J2_28_0" index="0" disallow="pedestrian" speed="8.67" length="11.29" shape="1495.11,2099.06 1498.60,2100.60 1500.85,2103.35 1501.60,2107.20"/>
    </edge>
    <edge id=":J2_29" function="internal">
        <lane id=":J2_29_0" index="0" disallow="pedestrian" speed="3.65" length="3.23" shape="1490.80,2099.20 1491.20,2100.00 1490.80,2100.80 1489.60,2101.60"/>
    </edge>
    <edge id=":J2_c0" function="crossing" crossingEdges="ACH_J2toN ACH_N2J2">
        <lane id=":J2_c0_0" index="0" allow="pedestrian" speed="2.78" length="12.80" width="4.00" shape="1506.40,2105.20 1493.60,2105.20" outlineShape="1506.50,2107.20 1493.50,2107.20 1493.49,2105.98 1493.16,2104.98 1492.60,2104.20 1491.82,2103.64 1491.49,2103.53 1493.60,2103.20 1506.40,2103.20 1508.51,2103.53 1508.18,2103.64 1507.40,2104.20 1506.84,2104.98 1506.51,2105.98"/>
    </edge>
    <edge id=":J2_c1" function="crossing" crossingEdges="NMA_J2toE NMA_E2J2">
        <lane id=":J2_c1_0" index="0" allow="pedestrian" speed="2.78" length="6.40" width="4.00" shape="1508.40,2096.80 1508.40,2103.20" outlineShape="1510.40,2096.70 1510.40,2103.30 1506.40,2107.20 1507.90,2107.20 1510.40,2104.70 1510.40,2103.20 1506.40,2107.20 1506.40,2092.80 1506.51,2094.02 1506.84,2095.02 1507.40,2095.80 1508.18,2096.36 1509.18,2096.69"/>
    </edge>
    <edge id=":J2_c2" function="crossing" crossingEdges="ACH_J2toJ1 ACH_J1toJ2">
        <lane id=":J2_c2_0" index="0" allow="pedestrian" speed="2.78" length="12.80" width="4.00" shape="1493.60,2094.80 1506.40,2094.80" outlineShape="1493.50,2092.80 1506.50,2092.80 1506.51,2094.02 1506.84,2095.02 1507.40,2095.80 1508.18,2096.36 1508.51,2096.47 1506.40,2096.80 1493.60,2096.80 1491.49,2096.47 1491.82,2096.36 1492.60,2095.80 1493.16,2095.02 1493.49,2094.02"/>
    </edge>
    <edge id=":J2_c3" function="crossing" crossingEdges="TSN_J2toW TSN_W2J2">
        <lane id=":J2_c3_0" index="0" allow="pedestrian" speed="2.78" length="6.40" width="4.00" shape="1491.60,2103.20 1491.60,2096.80" outlineShape="1489.60,2103.30 1489.60,2096.70 1493.60,2092.80 1492.10,2092.80 1489.60,2095.30 1489.60,2096.80 1493.60,2092.80 1493.60,2107.20 1493.49,2105.98 1493.16,2104.98 1492.60,2104.20 1491.82,2103.64 1490.82,2103.31"/>
    </edge>
    <edge id=":J2_w0" function="walkingarea">
        <lane id=":J2_w0_0" index="0" allow="pedestrian" speed="2.78" length="3.35" width="4.00" shape="1489.60,2103.20 1489.60,2104.70 1492.10,2107.20 1493.60,2107.20 1493.49,2105.98 1493.16,2104.98 1492.60,2104.20 1491.82,2103.64 1490.82,2103.31"/>
    </edge>
    <edge id=":J2_w1" function="walkingarea">
        <lane id=":J2_w1_0" index="0" allow="pedestrian" speed="2.78" length="3.35" width="4.00" shape="1506.40,2107.20 1507.90,2107.20 1510.40,2104.70 1510.40,2103.20 1509.18,2103.31 1508.18,2103.64 1507.40,2104.20 1506.84,2104.98 1506.51,2105.98"/>
    </edge>
    <edge id=":J2_w2" function="walkingarea">
        <lane id=":J2_w2_0" index="0" allow="pedestrian" speed="2.78" length="3.35" width="4.00" shape="1510.40,2096.80 1510.40,2095.30 1507.90,2092.80 1506.40,2092.80 1506.51,2094.02 1506.84,2095.02 1507.40,2095.80 1508.18,2096.36 1509.18,2096.69"/>
    </edge>
    <edge id=":J2_w3" function="walkingarea">