<?xml version="1.0" encoding="UTF-8"?>

<!-- generated on 2026-03-10T01:34:32.593965+00:00 by Eclipse SUMO netconvert 1.26.0
<netconvertConfiguration xmlns:xsi="http://www.w3.org/2001/XMLSchema-instance" xsi:noNamespaceSchemaLocation="http://sumo.dlr.de/xsd/netconvertConfiguration.xsd">

    <input>
        <node-files value="/Users/osborn/BIG PROJECT/ATCS-GH/simulation/corridor_nodes.nod.xml"/>
        <edge-files value="/Users/osborn/BIG PROJECT/ATCS-GH/simulation/corridor_edges.edg.xml"/>
    </input>

    <output>
        <output-file value="/Users/osborn/BIG PROJECT/ATCS-GH/simulation/corridor.net.xml"/>
    </output>

    <tls_building>
        <tls.default-type value="static"/>
    </tls_building>

    <pedestrian>
        <crossings.guess value="true"/>
        <crossings.guess.speed-threshold value="13.89"/>
    </pedestrian>

    <report>
        <no-warnings value="true"/>
    </report>

</netconvertConfiguration>
-->

<net version="1.20" junctionCornerDetail="5" walkingareas="true" limitTurnSpeed="5.50" xmlns:xsi="http://www.w3.org/2001/XMLSchema-instance" xsi:noNamespaceSchemaLocation="http://sumo.dlr.de/xsd/net_file.xsd">

    <location netOffset="500.00,500.00" convBoundary="0.00,0.00,1000.00,1600.00" origBoundary="-500.00,-500.00,500.00,1100.00" projParameter="!"/>

    <edge id=":E0_0" function="internal">
        <lane id=":E0_0_0" index="0" disallow="pedestrian" speed="3.65" length="4.67" shape="1000.00,498.40 1001.20,499.20 1001.60,500.00 1001.20,500.80 1000.00,501.60"/>
    </edge>
    <edge id=":E0_w0" function="walkingarea">
        <lane id=":E0_w0_0" index="0" allow="pedestrian" speed="2.78" length="14.30" width="1.50" shape="1000.00,506.40 1000.00,507.90 1000.00,492.10 1000.00,493.60"/>
    </edge>
    <edge id=":E1_0" function="internal">
        <lane id=":E1_0_0" index="0" disallow="pedestrian" speed="3.65" length="4.67" shape="900.00,798.40 901.20,799.20 901.60,800.00 901.20,800.80 900.00,801.60"/>
    </edge>
    <edge id=":E1_w0" function="walkingarea">
        <lane id=":E1_w0_0" index="0" allow="pedestrian" speed="2.78" length="14.30" width="1.50" shape="900.00,806.40 900.00,807.90 900.00,792.10 900.00,793.60"/>
    </edge>
    <edge id=":E2_0" function="internal">
        <lane id=":E2_0_0" index="0" disallow="pedestrian" speed="3.65" length="4.67" shape="1000.00,1098.40 1001.20,1099.20 1001.60,1100.00 1001.20,1100.80 1000.00,1101.60"/>
    </edge>
    <edge id=":E2_w0" function="walkingarea">
        <lane id=":E2_w0_0" index="0" allow="pedestrian" speed="2.78" length="7.90" width="1.50" shape="1000.00,1103.20 1000.00,1104.70 1000.00,1095.30 1000.00,1096.80"/>
    </edge>
    <edge id=":J0_0" function="internal">
        <lane id=":J0_0_0" index="0" disallow="pedestrian" speed="7.33" length="7.08" shape="495.20,510.40 494.85,506.55 493.80,503.80 493.60,503.61"/>
    </edge>
    <edge id=":J0_1" function="internal">
        <lane id=":J0_1_0" index="0" disallow="pedestrian" speed="13.89" length="20.80" shape="495.20,510.40 495.20,489.60"/>
        <lane id=":J0_1_1" index="1" disallow="pedestrian" speed="13.89" length="20.80" shape="498.40,510.40 498.40,489.60"/>
    </edge>
    <edge id=":J0_3" function="internal">
        <lane id=":J0_3_0" index="0" disallow="pedestrian" speed="9.26" length="5.01" shape="498.40,510.40 499.11,505.44"/>
    </edge>
    <edge id=":J0_4" function="internal">
        <lane id=":J0_4_0" index="0" disallow="pedestrian" speed="3.65" length="1.44" shape="498.40,510.40 499.20,509.20"/>
    </edge>
    <edge id=":J0_19" function="internal">
        <lane id=":J0_19_0" index="0" disallow="pedestrian" speed="7.33" length="4.64" shape="493.60,503.61 492.05,502.15 489.60,501.60"/>
    </edge>
    <edge id=":J0_20" function="internal">
        <lane id=":J0_20_0" index="0" disallow="pedestrian" speed="9.26" length="14.34" shape="499.11,505.44 499.15,505.15 501.40,501.40 505.15,499.15 510.40,498.40"/>
    </edge>
    <edge id=":J0_21" function="internal">
        <lane id=":J0_21_0" index="0" disallow="pedestrian" speed="3.65" length="3.23" shape="499.20,509.20 500.00,508.80 500.80,509.20 501.60,510.40"/>
    </edge>
    <edge id=":J0_5" function="internal">
        <lane id=":J0_5_0" index="0" disallow="pedestrian" speed="6.51" length="4.75" shape="510.40,504.80 507.95,505.15 506.20,506.20 506.08,506.40"/>
    </edge>
    <edge id=":J0_6" function="internal">
        <lane id=":J0_6_0" index="0" disallow="pedestrian" speed="11.11" length="21.12" shape="510.40,504.80 504.12,504.30 499.80,503.20 495.59,502.10 489.60,501.60"/>
    </edge>
    <edge id=":J0_7" function="internal">
        <lane id=":J0_7_0" index="0" disallow="pedestrian" speed="9.26" length="5.01" shape="510.40,501.60 505.44,500.89"/>
    </edge>
    <edge id=":J0_8" function="internal">
        <lane id=":J0_8_0" index="0" disallow="pedestrian" speed="3.65" length="1.44" shape="510.40,501.60 509.20,500.80"/>
    </edge>
    <edge id=":J0_22" function="internal">
        <lane id=":J0_22_0" index="0" disallow="pedestrian" speed="6.51" length="4.28" shape="506.08,506.40 505.15,507.95 504.80,510.40"/>
    </edge>
    <edge id=":J0_23" function="internal">
        <lane id=":J0_23_0" index="0" disallow="pedestrian" speed="9.26" length="14.34" shape="505.44,500.89 505.15,500.85 501.40,498.60 499.15,494.85 498.40,489.60"/>
    </edge>
    <edge id=":J0_24" function="internal">
        <lane id=":J0_24_0" index="0" disallow="pedestrian" speed="3.65" length="3.23" shape="509.20,500.80 508.80,500.00 509.20,499.20 510.40,498.40"/>
    </edge>
    <edge id=":J0_9" function="internal">
        <lane id=":J0_9_0" index="0" disallow="pedestrian" speed="6.51" length="4.75" shape="504.80,489.60 505.15,492.05 506.20,493.80 506.40,493.92"/>
    </edge>
    <edge id=":J0_10" function="internal">
        <lane id=":J0_10_0" index="0" disallow="pedestrian" speed="13.89" length="20.80" shape="504.80,489.60 504.80,510.40"/>
        <lane id=":J0_10_1" index="1" disallow="pedestrian" speed="13.89" length="20.80" shape="501.60,489.60 501.60,510.40"/>
    </edge>
    <edge id=":J0_12" function="internal">
        <lane id=":J0_12_0" index="0" disallow="pedestrian" speed="9.26" length="5.01" shape="501.60,489.60 500.89,494.56"/>
    </edge>
    <edge id=":J0_13" function="internal">
        <lane id=":J0_13_0" index="0" disallow="pedestrian" speed="3.65" length="1.44" shape="501.60,489.60 500.80,490.80"/>
    </edge>
    <edge id=":J0_25" function="internal">
        <lane id=":J0_25_0" index="0" disallow="pedestrian" speed="6.51" length="4.28" shape="506.40,493.92 507.95,494.85 510.40,495.20"/>
    </edge>
    <edge id=":J0_26" function="internal">
        <lane id=":J0_26_0" index="0" disallow="pedestrian" speed="9.26" length="14.34" shape="500.89,494.56 500.85,494.85 498.60,498.60 494.85,500.85 489.60,501.60"/>
    </edge>
    <edge id=":J0_27" function="internal">
        <lane id=":J0_27_0" index="0" disallow="pedestrian" speed="3.65" length="3.23" shape="500.80,490.80 500.00,491.20 499.20,490.80 498.40,489.60"/>
    </edge>
    <edge id=":J0_14" function="internal">
        <lane id=":J0_14_0" index="0" disallow="pedestrian" speed="7.33" length="7.70" shape="489.60,498.40 492.05,497.85 493.80,496.20 494.79,493.60"/>
    </edge>
    <edge id=":J0_15" function="internal">
        <lane id=":J0_15_0" index="0" disallow="pedestrian" speed="11.11" length="20.96" shape="489.60,498.40 495.59,497.90 499.80,496.80 504.12,495.70 510.40,495.20"/>
        <lane id=":J0_15_1" index="1" disallow="pedestrian" speed="11.11" length="20.96" shape="489.60,498.40 510.40,498.40"/>
    </edge>
    <edge id=":J0_17" function="internal">
        <lane id=":J0_17_0" index="0" disallow="pedestrian" speed="9.26" length="6.01" shape="489.60,498.40 494.85,499.15 495.45,499.51"/>
    </edge>
    <edge id=":J0_18" function="internal">
        <lane id=":J0_18_0" index="0" disallow="pedestrian" speed="3.65" length="1.44" shape="489.60,498.40 490.80,499.20"/>
    </edge>
    <edge id=":J0_28" function="internal">
        <lane id=":J0_28_0" index="0" disallow="pedestrian" speed="7.33" length="4.03" shape="494.79,493.60 494.85,493.45 495.20,489.60"/>
    </edge>
    <edge id=":J0_29" function="internal">
        <lane id=":J0_29_0" index="0" disallow="pedestrian" speed="9.26" length="13.35" shape="495.45,499.51 498.60,501.40 500.85,505.15 501.60,510.40"/>
    </edge>
    <edge id=":J0_30" function="internal">
        <lane id=":J0_30_0" index="0" disallow="pedestrian" speed="3.65" length="3.23" shape="490.80,499.20 491.20,500.00 490.80,500.80 489.60,501.60"/>
    </edge>
    <edge id=":J0_c0" function="crossing" crossingEdges="ACH_J0toJ1 ACH_J1toJ0">
        <lane id=":J0_c0_0" index="0" allow="pedestrian" speed="2.78" length="12.80" width="4.00" shape="506.40,508.40 493.60,508.40" outlineShape="506.40,510.40 493.60,510.40 493.49,508.20 493.16,506.40 510.40,506.40 509.18,506.51 508.18,506.84 507.40,507.40 506.84,508.18 506.51,509.18"/>
    </edge>
    <edge id=":J0_c1" function="crossing" crossingEdges="AGG_J0toE AGG_E2J0">
        <lane id=":J0_c1_0" index="0" allow="pedestrian" speed="2.78" length="12.80" width="4.00" shape="508.40,493.60 508.40,506.40" outlineShape="510.40,493.60 510.40,506.40 506.40,510.40 507.90,510.40 510.40,507.90 510.40,506.40 506.40,510.40 506.40,489.60 506.51,490.82 506.84,491.82 507.40,492.60 508.18,493.16 509.18,493.49"/>
    </edge>
    <edge id=":J0_c2" function="crossing" crossingEdges="ACH_J0toS ACH_S2J0">
        <lane id=":J0_c2_0" index="0" allow="pedestrian" speed="2.78" length="12.80" width="4.00" shape="493.60,491.60 506.40,491.60" outlineShape="493.60,489.60 506.40,489.60 510.40,493.60 510.40,492.10 507.90,489.60 506.40,489.60 510.40,493.60 493.16,493.60 493.49,491.80"/>
    </edge>
    <edge id=":J0_c3" function="crossing" crossingEdges="GUG_J0toW GUG_W2J0">
        <lane id=":J0_c3_0" index="0" allow="pedestrian" speed="2.78" length="6.40" width="4.00" shape="491.60,503.20 491.60,496.80" outlineShape="489.60,503.20 489.60,496.80 490.82,496.60 491.82,496.00 492.60,495.00 492.80,494.48 493.60,496.80 493.60,503.20 492.80,505.52 492.60,505.00 491.82,504.00 490.82,503.40"/>
    </edge>
    <edge id=":J0_w0" function="walkingarea">
        <lane id=":J0_w0_0" index="0" allow="pedestrian" speed="2.78" length="5.06" width="4.00" shape="489.60,503.20 489.60,504.70 492.10,510.40 493.60,510.40 493.49,508.20 493.16,506.40 492.60,505.00 491.82,504.00 490.82,503.40"/>
    </edge>
    <edge id=":J0_w1" function="walkingarea">
        <lane id=":J0_w1_0" index="0" allow="pedestrian" speed="2.78" length="3.35" width="4.00" shape="506.40,510.40 507.90,510.40 510.40,507.90 510.40,506.40 509.18,506.51 508.18,506.84 507.40,507.40 506.84,508.18 506.51,509.18"/>
    </edge>
    <edge id=":J0_w2" function="walkingarea">
        <lane id=":J0_w2_0" index="0" allow="pedestrian" speed="2.78" length="3.35" width="4.00" shape="510.40,493.60 510.40,492.10 507.90,489.60 506.40,489.60 506.51,490.82 506.84,491.82 507.40,492.60 508.18,493.16 509.18,493.49"/>
    </edge>
    <edge id=":J0_w3" function="walkingarea">
        <lane id=":J0_w3_0" index="0" allow="pedestrian" speed="2.78" length="5.06" width="4.00" shape="493.60,489.60 492.10,489.60 489.60,495.30 489.60,496.80 490.82,496.60 491.82,496.00 492.60,495.00 493.16,493.60 493.49,491.80"/>
    </edge>
    <edge id=":J1_0" function="internal">
        <lane id=":J1_0_0" index="0" disallow="pedestrian" speed="6.51" length="4.75" shape="495.20,810.40 494.85,807.95 493.80,806.20 493.60,806.08"/>
    </edge>
    <edge id=":J1_1" function="internal">
        <lane id=":J1_1_0" index="0" disallow="pedestrian" speed="13.89" length="20.80" shape="495.20,810.40 495.20,789.60"/>
        <lane id=":J1_1_1" index="1" disallow="pedestrian" speed="13.89" length="20.80" shape="498.40,810.40 498.40,789.60"/>
    </edge>
    <edge id=":J1_3" function="internal">
        <lane id=":J1_3_0" index="0" disallow="pedestrian" speed="9.26" length="5.01" shape="498.40,810.40 499.11,805.44"/>
    </edge>
    <edge id=":J1_4" function="internal">
        <lane id=":J1_4_0" index="0" disallow="pedestrian" speed="3.65" length="1.44" shape="498.40,810.40 499.20,809.20"/>
    </edge>
    <edge id=":J1_20" function="internal">
        <lane id=":J1_20_0" index="0" disallow="pedestrian" speed="6.51" length="4.28" shape="493.60,806.08 492.05,805.15 489.60,804.80"/>
    </edge>
    <edge id=":J1_21" function="internal">
        <lane id=":J1_21_0" index="0" disallow="pedestrian" speed="9.26" length="14.34" shape="499.11,805.44 499.15,805.15 501.40,801.40 505.15,799.15 510.40,798.40"/>
    </edge>
    <edge id=":J1_22" function="internal">
        <lane id=":J1_22_0" index="0" disallow="pedestrian" speed="3.65" length="3.23" shape="499.20,809.20 500.00,808.80 500.80,809.20 501.60,810.40"/>
    </edge>
    <edge id=":J1_5" function="internal">
        <lane id=":J1_5_0" index="0" disallow="pedestrian" speed="6.51" length="4.75" shape="510.40,804.80 507.95,805.15 506.20,806.20 506.08,806.40"/>
    </edge>
    <edge id=":J1_6" function="internal">
        <lane id=":J1_6_0" index="0" disallow="pedestrian" speed="11.11" length="20.80" shape="510.40,804.80 489.60,804.80"/>
        <lane id=":J1_6_1" index="1" disallow="pedestrian" speed="11.11" length="20.80" shape="510.40,801.60 489.60,801.60"/>
    </edge>
    <edge id=":J1_8" function="internal">
        <lane id=":J1_8_0" index="0" disallow="pedestrian" speed="9.26" length="5.01" shape="510.40,801.60 505.44,800.89"/>
    </edge>
    <edge id=":J1_9" function="internal">
        <lane id=":J1_9_0" index="0" disallow="pedestrian" speed="3.65" length="1.44" shape="510.40,801.60 509.20,800.80"/>
    </edge>
    <edge id=":J1_23" function="internal">
        <lane id=":J1_23_0" index="0" disallow="pedestrian" speed="6.51" length="4.28" shape="506.08,806.40 505.15,807.95 504.80,810.40"/>
    </edge>
    <edge id=":J1_24" function="internal">
        <lane id=":J1_24_0" index="0" disallow="pedestrian" speed="9.26" length="14.34" shape="505.44,800.89 505.15,800.85 501.40,798.60 499.15,794.85 498.40,789.60"/>
    </edge>
    <edge id=":J1_25" function="internal">
        <lane id=":J1_25_0" index="0" disallow="pedestrian" speed="3.65" length="3.23" shape="509.20,800.80 508.80,800.00 509.20,799.20 510.40,798.40"/>
    </edge>
    <edge id=":J1_10" function="internal">
        <lane id=":J1_10_0" index="0" disallow="pedestrian" speed="6.51" length="4.75" shape="504.80,789.60 505.15,792.05 506.20,793.80 506.40,793.92"/>
    </edge>
    <edge id=":J1_11" function="internal">
        <lane id=":J1_11_0" index="0" disallow="pedestrian" speed="13.89" length="20.80" shape="504.80,789.60 504.80,810.40"/>
        <lane id=":J1_11_1" index="1" disallow="pedestrian" speed="13.89" length="20.80" shape="501.60,789.60 501.60,810.40"/>
    </edge>
    <edge id=":J1_13" function="internal">
        <lane id=":J1_13_0" index="0" disallow="pedestrian" speed="9.26" length="5.01" shape="501.60,789.60 500.89,794.56"/>
    </edge>
    <edge id=":J1_14" function="internal">
        <lane id=":J1_14_0" index="0" disallow="pedestrian" speed="3.65" length="1.44" shape="501.60,789.60 500.80,790.80"/>
    </edge>
    <edge id=":J1_26" function="internal">
        <lane id=":J1_26_0" index="0" disallow="pedestrian" speed="6.51" length="4.28" shape="506.40,793.92 507.95,794.85 510.40,795.20"/>
    </edge>
    <edge id=":J1_27" function="internal">
        <lane id=":J1_27_0" index="0" disallow="pedestrian" speed="9.26" length="14.34" shape="500.89,794.56 500.85,794.85 498.60,798.60 494.85,800.85 489.60,801.60"/>
    </edge>
    <edge id=":J1_28" function="internal">
        <lane id=":J1_28_0" index="0" disallow="pedestrian" speed="3.65" length="3.23" shape="500.80,790.80 500.00,791.20 499.20,790.80 498.40,789.60"/>
    </edge>
    <edge id=":J1_15" function="internal">
        <lane id=":J1_15_0" index="0" disallow="pedestrian" speed="6.51" length="4.75" shape="489.60,795.20 492.05,794.85 493.80,793.80 493.92,793.60"/>
    </edge>
    <edge id=":J1_16" function="internal">
        <lane id=":J1_16_0" index="0" disallow="pedestrian" speed="11.11" length="20.80" shape="489.60,795.20 510.40,795.20"/>
        <lane id=":J1_16_1" index="1" disallow="pedestrian" speed="11.11" length="20.80" shape="489.60,798.40 510.40,798.40"/>
    </edge>
    <edge id=":J1_18" function="internal">
        <lane id=":J1_18_0" index="0" disallow="pedestrian" speed="9.26" length="5.01" shape="489.60,798.40 494.56,799.11"/>
    </edge>
    <edge id=":J1_19" function="internal">
        <lane id=":J1_19_0" index="0" disallow="pedestrian" speed="3.65" length="1.44" shape="489.60,798.40 490.80,799.20"/>
    </edge>
    <edge id=":J1_29" function="internal">
        <lane id=":J1_29_0" index="0" disallow="pedestrian" speed="6.51" length="4.28" shape="493.92,793.60 494.85,792.05 495.20,789.60"/>
    </edge>
    <edge id=":J1_30" function="internal">
        <lane id=":J1_30_0" index="0" disallow="pedestrian" speed="9.26" length="14.34" shape="494.56,799.11 494.85,799.15 498.60,801.40 500.85,805.15 501.60,810.40"/>
    </edge>
    <edge id=":J1_31" function="internal">
        <lane id=":J1_31_0" index="0" disallow="pedestrian" speed="3.65" length="3.23" shape="490.80,799.20 491.20,800.00 490.80,800.80 489.60,801.60"/>
    </edge>
    <edge id=":J1_c0" function="crossing" crossingEdges="ACH_J1toJ2 ACH_J2toJ1">
        <lane id=":J1_c0_0" index="0" allow="pedestrian" speed="2.78" length="12.80" width="4.00" shape="506.40,808.40 493.60,808.40" outlineShape="506.40,810.40 493.60,810.40 489.60,806.40 489.60,807.90 492.10,810.40 493.60,810.40 489.60,806.40 510.40,806.40 509.18,806.51 508.18,806.84 507.40,807.40 506.84,808.18 506.51,809.18"/>
    </edge>
    <edge id=":J1_c1" function="crossing" crossingEdges="ASD_J1toE ASD_E2J1">
        <lane id=":J1_c1_0" index="0" allow="pedestrian" speed="2.78" length="12.80" width="4.00" shape="508.40,793.60 508.40,806.40" outlineShape="510.40,793.60 510.40,806.40 506.40,810.40 507.90,810.40 510.40,807.90 510.40,806.40 506.40,810.40 506.40,789.60 506.51,790.82 506.84,791.82 507.40,792.60 508.18,793.16 509.18,793.49"/>
    </edge>
    <edge id=":J1_c2" function="crossing" crossingEdges="ACH_J1toJ0 ACH_J0toJ1">
        <lane id=":J1_c2_0" index="0" allow="pedestrian" speed="2.78" length="12.80" width="4.00" shape="493.60,791.60 506.40,791.60" outlineShape="493.60,789.60 506.40,789.60 510.40,793.60 510.40,792.10 507.90,789.60 506.40,789.60 510.40,793.60 489.60,793.60 490.82,793.49 491.82,793.16 492.60,792.60 493.16,791.82 493.49,790.82"/>
    </edge>
    <edge id=":J1_c3" function="crossing" crossingEdges="RNG_J1toW RNG_W2J1">
        <lane id=":J1_c3_0" index="0" allow="pedestrian" speed="2.78" length="12.80" width="4.00" shape="491.60,806.40 491.60,793.60" outlineShape="489.60,806.40 489.60,793.60 493.60,789.60 492.10,789.60 489.60,792.10 489.60,793.60 493.60,789.60 493.60,810.40 493.49,809.18 493.16,808.18 492.60,807.40 491.82,806.84 490.82,806.51"/>
    </edge>
    <edge id=":J1_w0" function="walkingarea">
        <lane id=":J1_w0_0" index="0" allow="pedestrian" speed="2.78" length="3.35" width="4.00" shape="489.60,806.40 489.60,807.90 492.10,810.40 493.60,810.40 493.49,809.18 493.16,808.18 492.60,807.40 491.82,806.84 490.82,806.51"/>
    </edge>
    <edge id=":J1_w1" function="walkingarea">
        <lane id=":J1_w1_0" index="0" allow="pedestrian" speed="2.78" length="3.35" width="4.00" shape="506.40,810.40 507.90,810.40 510.40,807.90 510.40,806.40 509.18,806.51 508.18,806.84 507.40,807.40 506.84,808.18 506.51,809.18"/>
    </edge>
    <edge id=":J1_w2" function="walkingarea">
        <lane id=":J1_w2_0" index="0" allow="pedestrian" speed="2.78" length="3.35" width="4.00" shape="510.40,793.60 510.40,792.10 507.90,789.60 506.40,789.60 506.51,790.82 506.84,791.82 507.40,792.60 508.18,793.16 509.18,793.49"/>
    </edge>
    <edge id=":J1_w3" function="walkingarea">
        <lane id=":J1_w3_0" index="0" allow="pedestrian" speed="2.78" length="3.35" width="4.00" shape="493.60,789.60 492.10,789.60 489.60,792.10 489.60,793.60 490.82,793.49 491.82,793.16 492.60,792.60 493.16,791.82 493.49,790.82"/>
    </edge>
    <edge id=":J2_0" function="internal">
        <lane id=":J2_0_0" index="0" disallow="pedestrian" speed="6.51" length="4.75" shape="495.20,1107.20 494.85,1104.75 493.80,1103.00 493.60,1102.88"/>
    </edge>
    <edge id=":J2_1" function="internal">
        <lane id=":J2_1_0" index="0" disallow="pedestrian" speed="13.89" length="14.40" shape="495.20,1107.20 495.20,1092.80"/>
        <lane id=":J2_1_1" index="1" disallow="pedestrian" speed="13.89" length="14.40" shape="498.40,1107.20 498.40,1092.80"/>
    </edge>
    <edge id=":J2_3" function="internal">
        <lane id=":J2_3_0" index="0" disallow="pedestrian" speed="8.67" length="3.71" shape="498.40,1107.20 499.11,1103.56"/>
    </edge>
    <edge id=":J2_4" function="internal">
        <lane id=":J2_4_0" index="0" disallow="pedestrian" speed="3.65" length="1.44" shape="498.40,1107.20 499.20,1106.00"/>
    </edge>
    <edge id=":J2_18" function="internal">
        <lane id=":J2_18_0" index="0" disallow="pedestrian" speed="6.51" length="4.28" shape="493.60,1102.88 492.05,1101.95 489.60,1101.60"/>
    </edge>
    <edge id=":J2_19" function="internal">
        <lane id=":J2_19_0" index="0" disallow="pedestrian" speed="8.67" length="13.14" shape="499.11,1103.56 499.15,1103.35 501.40,1100.60 505.15,1098.95 510.40,1098.40"/>
    </edge>
    <edge id=":J2_20" function="internal">
        <lane id=":J2_20_0" index="0" disallow="pedestrian" speed="3.65" length="3.23" shape="499.20,1106.00 500.00,1105.60 500.80,1106.00 501.60,1107.20"/>
    </edge>
    <edge id=":J2_5" function="internal">
        <lane id=":J2_5_0" index="0" disallow="pedestrian" speed="6.51" length="4.75" shape="510.40,1101.60 507.95,1101.95 506.20,1103.00 506.08,1103.20"/>
    </edge>
    <edge id=":J2_6" function="internal">
        <lane id=":J2_6_0" index="0" disallow="pedestrian" speed="11.11" length="20.80" shape="510.40,1101.60 489.60,1101.60"/>
    </edge>
    <edge id=":J2_7" function="internal">
        <lane id=":J2_7_0" index="0" disallow="pedestrian" speed="8.67" length="5.56" shape="510.40,1101.60 505.15,1101.05 504.89,1100.94"/>
    </edge>
    <edge id=":J2_8" function="internal">
        <lane id=":J2_8_0" index="0" disallow="pedestrian" speed="3.65" length="1.44" shape="510.40,1101.60 509.20,1100.80"/>
    </edge>
    <edge id=":J2_21" function="internal">
        <lane id=":J2_21_0" index="0" disallow="pedestrian" speed="6.51" length="4.28" shape="506.08,1103.20 505.15,1104.75 504.80,1107.20"/>
    </edge>
    <edge id=":J2_22" function="internal">
        <lane id=":J2_22_0" index="0" disallow="pedestrian" speed="8.67" length="11.29" shape="504.89,1100.94 501.40,1099.40 499.15,1096.65 498.40,1092.80"/>
    </edge>
    <edge id=":J2_23" function="internal">
        <lane id=":J2_23_0" index="0" disallow="pedestrian" speed="3.65" length="3.23" shape="509.20,1100.80 508.80,1100.00 509.20,1099.20 510.40,1098.40"/>
    </edge>
    <edge id=":J2_9" function="internal">
        <lane id=":J2_9_0" index="0" disallow="pedestrian" speed="6.51" length="4.75" shape="504.80,1092.80 505.15,1095.25 506.20,1097.00 506.40,1097.12"/>
    </edge>
    <edge id=":J2_10" function="internal">
        <lane id=":J2_10_0" index="0" disallow="pedestrian" speed="13.89" length="14.40" shape="504.80,1092.80 504.80,1107.20"/>
        <lane id=":J2_10_1" index="1" disallow="pedestrian" speed="13.89" length="14.40" shape="501.60,1092.80 501.60,1107.20"/>
    </edge>
    <edge id=":J2_12" function="internal">
        <lane id=":J2_12_0" index="0" disallow="pedestrian" speed="8.67" length="3.71" shape="501.60,1092.80 500.89,1096.44"/>
    </edge>
    <edge id=":J2_13" function="internal">
        <lane id=":J2_13_0" index="0" disallow="pedestrian" speed="3.65" length="1.44" shape="501.60,1092.80 500.80,1094.00"/>
    </edge>
    <edge id=":J2_24" function="internal">
        <lane id=":J2_24_0" index="0" disallow="pedestrian" speed="6.51" length="4.28" shape="506.40,1097.12 507.95,1098.05 510.40,1098.40"/>
    </edge>
    <edge id=":J2_25" function="internal">
        <lane id=":J2_25_0" index="0" disallow="pedestrian" speed="8.67" length="13.14" shape="500.89,1096.44 500.85,1096.65 498.60,1099.40 494.85,1101.05 489.60,1101.60"/>
    </edge>
    <edge id=":J2_26" function="internal">
        <lane id=":J2_26_0" index="0" disallow="pedestrian" speed="3.65" length="3.23" shape="500.80,1094.00 500.00,1094.40 499.20,1094.00 498.40,1092.80"/>
    </edge>
    <edge id=":J2_14" function="internal">
        <lane id=":J2_14_0" index="0" disallow="pedestrian" speed="6.51" length="4.75" shape="489.60,1098.40 492.05,1098.05 493.80,1097.00 493.92,1096.80"/>
    </edge>
    <edge id=":J2_15" function="internal">
        <lane id=":J2_15_0" index="0" disallow="pedestrian" speed="11.11" length="20.80" shape="489.60,1098.40 510.40,1098.40"/>
    </edge>
    <edge id=":J2_16" function="internal">
        <lane id=":J2_16_0" index="0" disallow="pedestrian" speed="8.67" length="5.56" shape="489.60,1098.40 494.85,1098.95 495.11,1099.06"/>
    </edge>
    <edge id=":J2_17" function="internal">
        <lane id=":J2_17_0" index="0" disallow="pedestrian" speed="3.65" length="1.44" shape="489.60,1098.40 490.80,1099.20"/>
    </edge>
    <edge id=":J2_27" function="internal">
        <lane id=":J2_27_0" index="0" disallow="pedestrian" speed="6.51" length="4.28" shape="493.92,1096.80 494.85,1095.25 495.20,1092.80"/>
    </edge>
    <edge id=":J2_28" function="internal">
        <lane id=":J2_28_0" index="0" disallow="pedestrian" speed="8.67" length="11.29" shape="495.11,1099.06 498.60,1100.60 500.85,1103.35 501.60,1107.20"/>
    </edge>
    <edge id=":J2_29" function="internal">
        <lane id=":J2_29_0" index="0" disallow="pedestrian" speed="3.65" length="3.23" shape="490.80,1099.20 491.20,1100.00 490.80,1100.80 489.60,1101.60"/>
    </edge>
    <edge id=":J2_c0" function="crossing" crossingEdges="ACH_J2toN ACH_N2J2">
        <lane id=":J2_c0_0" index="0" allow="pedestrian" speed="2.78" length="12.80" width="4.00" shape="506.40,1105.20 493.60,1105.20" outlineShape="506.40,1107.20 493.60,1107.20 489.60,1103.20 489.60,1104.70 492.10,1107.20 493.60,1107.20 489.60,1103.20 510.40,1103.20 509.18,1103.31 508.18,1103.64 507.40,1104.20 506.84,1104.98 506.51,1105.98"/>
    </edge>
    <edge id=":J2_c1" function="crossing" crossingEdges="NMA_J2toE NMA_E2J2">
        <lane id=":J2_c1_0" index="0" allow="pedestrian" speed="2.78" length="6.40" width="4.00" shape="508.40,1096.80 508.40,1103.20" outlineShape="510.40,1096.70 510.40,1103.30 509.18,1103.31 508.18,1103.64 507.40,1104.20 506.84,1104.98 506.73,1105.31 506.40,1103.20 506.40,1096.80 506.73,1094.69 506.84,1095.02 507.40,1095.80 508.18,1096.36 509.18,1096.69"/>
    </edge>
    <edge id=":J2_c2" function="crossing" crossingEdges="ACH_J2toJ1 ACH_J1toJ2">
        <lane id=":J2_c2_0" index="0" allow="pedestrian" speed="2.78" length="12.80" width="4.00" shape="493.60,1094.80 506.40,1094.80" outlineShape="493.60,1092.80 506.40,1092.80 510.40,1096.80 510.40,1095.30 507.90,1092.80 506.40,1092.80 510.40,1096.80 489.60,1096.80 490.82,1096.69 491.82,1096.36 492.60,1095.80 493.16,1095.02 493.49,1094.02"/>
    </edge>
    <edge id=":J2_c3" function="crossing" crossingEdges="TSN_J2toW TSN_W2J2">
        <lane id=":J2_c3_0" index="0" allow="pedestrian" speed="2.78" length="6.40" width="4.00" shape="491.60,1103.20 491.60,1096.80" outlineShape="489.60,1103.30 489.60,1096.70 490.82,1096.69 491.82,1096.36 492.60,1095.80 493.16,1095.02 493.27,1094.69 493.60,1096.80 493.60,1103.20 493.27,1105.31 493.16,1104.98 492.60,1104.20 491.82,1103.64 490.82,1103.31"/>
    </edge>
    <edge id=":J2_w0" function="walkingarea">
        <lane id=":J2_w0_0" index="0" allow="pedestrian" speed="2.78" length="3.35" width="4.00" shape="489.60,1103.20 489.60,1104.70 492.10,1107.20 493.60,1107.20 493.49,1105.98 493.16,1104.98 492.60,1104.20 491.82,1103.64 490.82,1103.31"/>
    </edge>
    <edge id=":J2_w1" function="walkingarea">
        <lane id=":J2_w1_0" index="0" allow="pedestrian" speed="2.78" length="3.35" width="4.00" shape="506.40,1107.20 507.90,1107.20 510.40,1104.70 510.40,1103.20 509.18,1103.31 508.18,1103.64 507.40,1104.20 506.84,1104.98 506.51,1105.98"/>
    </edge>
    <edge id=":J2_w2" function="walkingarea">
        <lane id=":J2_w2_0" index="0" allow="pedestrian" speed="2.78" length="3.35" width="4.00" shape="510.40,1096.80 510.40,1095.30 507.90,1092.80 506.40,1092.80 506.51,1094.02 506.84,1095.02 507.40,1095.80 508.18,1096.36 509.18,1096.69"/>
    </edge>
    <edge id=":J2_w3" function="walkingarea">
        <lane id=":J2_w3_0" index="0" allow="pedestrian" speed="2.78" length="3.35" width="4.00" shape="493.60,1092.80 492.10,1092.80 489.60,1095.30 489.60,1096.80 490.82,1096.69 491.82,1096.36 492.60,1095.80 493.16,1095.02 493.49,1094.02"/>
    </edge>
    <edge id=":N_0" function="internal">
        <lane id=":N_0_0" index="0" disallow="pedestrian" speed="3.65" length="4.67" shape="501.60,1600.00 500.80,1601.20 500.00,1601.60 499.20,1601.20 498.40,1600.00"/>
    </edge>
    <edge id=":N_w0" function="walkingarea">
        <lane id=":N_w0_0" index="0" allow="pedestrian" speed="2.78" length="14.30" width="1.50" shape="493.60,1600.00 492.10,1600.00 507.90,1600.00 506.40,1600.00"/>
    </edge>
    <edge id=":S_0" function="internal">
        <lane id=":S_0_0" index="0" disallow="pedestrian" speed="3.65" length="4.67" shape="498.40,-0.00 499.20,-1.20 500.00,-1.60 500.80,-1.20 501.60,-0.00"/>
    </edge>
    <edge id=":S_w0" function="walkingarea">
        <lane id=":S_w0_0" index="0" allow="pedestrian" speed="2.78" length="14.30" width="1.50" shape="506.40,-0.00 507.90,-0.00 492.10,-0.00 493.60,-0.00"/>
    </edge>
    <edge id=":W0_0" function="internal">