<?xml version="1.0" encoding="UTF-8"?>
<!--
  ATCS-GH | Achimota/Neoplan Junction — Edge Definitions
  ══════════════════════════════════════════════════════
  Real-world calibration: Achimota/Neoplan Junction, N6 Nsawam Road, Accra
  GPS: 5.6216 N, 0.2193 W  |  Part of ATMC smart signal network

  Road layout:
  ┌─────────────────────────────────────────────────────────────────┐
  │ North/South  │ Achimota Forest Rd │ 2 lanes │ 50 km/h (13.89)  │
  │   — N6 trunk road (primary), divided carriageway                │
  │                                                                 │
  │ East         │ Aggrey Street      │ 2 lanes │ 50 km/h (13.89)  │
  │   — secondary road, connects to residential areas east          │
  │                                                                 │
  │ West         │ Guggisberg Street  │ 1 lane  │ 30 km/h (8.33)   │
  │   — minor residential feeder road                               │
  └─────────────────────────────────────────────────────────────────┘

  Priority 2 = primary trunk road, Priority 1 = secondary/residential.
  Each direction is a SEPARATE directed edge (SUMO convention).
-->
<edges>
    <!-- ── Achimota Forest Road — N/S corridor (primary, 2 lanes each way) ── -->
    <edge id="ACH_N2J" from="N"  to="J0" numLanes="2" speed="13.89" priority="2" sidewalkWidth="1.5"/>
    <edge id="ACH_J2N" from="J0" to="N"  numLanes="2" speed="13.89" priority="2" sidewalkWidth="1.5"/>
    <edge id="ACH_S2J" from="S"  to="J0" numLanes="2" speed="13.89" priority="2" sidewalkWidth="1.5"/>
    <edge id="ACH_J2S" from="J0" to="S"  numLanes="2" speed="13.89" priority="2" sidewalkWidth="1.5"/>

    <!-- ── Aggrey Street — East approach (secondary, 2 lanes each way) ────── -->
    <edge id="AGG_E2J" from="E"  to="J0" numLanes="2" speed="13.89" priority="1" sidewalkWidth="1.5"/>
    <edge id="AGG_J2E" from="J0" to="E"  numLanes="2" speed="13.89" priority="1" sidewalkWidth="1.5"/>

    <!-- ── Guggisberg Street — West approach (residential, 1 lane each way) ─ -->
    <edge id="GUG_W2J" from="W"  to="J0" numLanes="1" speed="8.33"  priority="1" sidewalkWidth="1.5"/>
    <edge id="GUG_J2W" from="J0" to="W"  numLanes="1" speed="8.33"  priority="1" sidewalkWidth="1.5"/>
</edges>
