<?xml version="1.0" encoding="UTF-8"?>
<!--
  ATCS-GH | Achimota/Neoplan Junction — Node Definitions
  ══════════════════════════════════════════════════════
  Real-world calibration: Achimota/Neoplan Junction, N6 Nsawam Road, Accra
  GPS: 5.6216 N, 0.2193 W

  Junction layout (local metre coordinates, origin at junction centre):
    J0 — central signalised junction (Achimota/Neoplan)
    N  — Achimota Forest Rd toward Nsawam (500m north)
    S  — Achimota Forest Rd toward Accra CBD (500m south)
    E  — Aggrey Street eastbound (500m east)
    W  — Guggisberg Street westbound (500m west)

  Coordinate system: metres, origin at junction centre.
  These files are fed to `netconvert` by scripts/build_network.py
  to produce simulation/intersection.net.xml.
-->
<nodes>
    <!-- Central junction: traffic-light type triggers auto TL generation -->
    <node id="J0" x="0"    y="0"    type="traffic_light"/>

    <!-- Arm endpoints — "priority" lets the junction manage right-of-way -->
    <node id="N"  x="0"    y="500"  type="priority"/>
    <node id="S"  x="0"    y="-500" type="priority"/>
    <node id="E"  x="500"  y="0"    type="priority"/>
    <node id="W"  x="-500" y="0"    type="priority"/>
</nodes>
