<?xml version="1.0" encoding="UTF-8"?>
<!--
  ATCS-GH | Continuous-Day v2 — one realistic day on the Achimota junction.
  quiet → morning rush (N-heavy 1901) → midday lull → evening rush (S-heavy 2350) → quiet.
  Generated by build_continuous_day.py — blends off_peak/morning/evening templates.
-->
<routes>


<!-- Standard passenger car — speedDev=0.2 gives realistic speed variation -->
<vType id="car"
       accel="2.6" decel="4.5" emergencyDecel="9.0" sigma="0.5"
       length="4.5" minGap="2.5" maxSpeed="19.44"
       speedFactor="1.0" speedDev="0.2"
       guiShape="passenger" color="0.6,0.6,0.9"
       jmCrossingGap="3.0"/>

<!-- Trotro (shared minibus) — slower mean, some variation between drivers -->
<vType id="trotro"
       accel="1.8" decel="3.5" emergencyDecel="7.0" sigma="0.7"
       length="7.0" minGap="3.0" maxSpeed="16.67"
       speedFactor="0.9" speedDev="0.15"
       guiShape="bus/city" color="1.0,0.8,0.0"
       jmCrossingGap="3.0"/>

<!-- Pedestrian — faster walking speed (Ghanaian crossing behavior) -->
<vType id="ped_fast" vClass="pedestrian"
       speed="3.80"
       length="0.25" minGap="0.5" width="0.65"/>

<!-- Emergency vehicle (ambulance) — always on the run! -->
<vType id="emergency" vClass="emergency"
       accel="4.5" decel="7.0" emergencyDecel="9.0" sigma="0.0"
       tau="0.3" length="5.5" minGap="1.0" maxSpeed="27.78"
       guiShape="emergency" color="1.0,0.0,0.0" speedFactor="1.4" speedDev="0.1"
       lcStrategic="100" lcPushy="1.0" lcAssertive="1.0"
       jmDriveAfterRedTime="3" jmDriveAfterYellowTime="3"/>

<!-- From North (Achimota Forest Rd — Nsawam direction) -->
<route id="route_NS" edges="ACH_N2J ACH_J2S"/>
<route id="route_NE" edges="ACH_N2J AGG_J2E"/>
<route id="route_NW" edges="ACH_N2J GUG_J2W"/>

<!-- From South (Achimota Forest Rd — CBD direction) -->
<route id="route_SN" edges="ACH_S2J ACH_J2N"/>
<route id="route_SE" edges="ACH_S2J AGG_J2E"/>
<route id="route_SW" edges="ACH_S2J GUG_J2W"/>

<!-- From East (Aggrey Street) -->
<route id="route_EW" edges="AGG_E2J GUG_J2W"/>
<route id="route_EN" edges="AGG_E2J ACH_J2N"/>
<route id="route_ES" edges="AGG_E2J ACH_J2S"/>

<!-- From West (Guggisberg Street) -->
<route id="route_WE" edges="GUG_W2J AGG_J2E"/>
<route id="route_WN" edges="GUG_W2J ACH_J2N"/>
<route id="route_WS" edges="GUG_W2J ACH_J2S"/>

  <!-- Time-varying demand: 24 windows along the day curve -->
  <flow id="flow_NS_w00" type="car" route="route_NS" begin="0" end="300" vehsPerHour="300.0" departLane="best" departSpeed="max"/>
  <flow id="flow_NS_t_w00" type="trotro" route="route_NS" begin="0" end="300" vehsPerHour="30.0" departLane="best" departSpeed="max"/>
  <flow id="flow_SN_w00" type="car" route="route_SN" begin="0" end="300" vehsPerHour="250.0" departLane="best" departSpeed="max"/>
  <flow id="flow_SN_t_w00" type="trotro" route="route_SN" begin="0" end="300" vehsPerHour="25.0" departLane="best" departSpeed="max"/>
  <flow id="flow_NE_w00" type="car" route="route_NE" begin="0" end="300" vehsPerHour="50.0" departLane="best" departSpeed="max"/>
  <flow id="flow_NW_w00" type="car" route="route_NW" begin="0" end="300" vehsPerHour="40.0" departLane="best" departSpeed="max"/>
  <flow id="flow_SE_w00" type="car" route="route_SE" begin="0" end="300" vehsPerHour="50.0" departLane="best" departSpeed="max"/>
  <flow id="flow_SW_w00" type="car" route="route_SW" begin="0" end="300" vehsPerHour="60.0" departLane="best" departSpeed="max"/>
  <flow id="flow_EW_w00" type="car" route="route_EW" begin="0" end="300" vehsPerHour="120.0" departLane="best" departSpeed="max"/>
  <flow id="flow_EW_t_w00" type="trotro" route="route_EW" begin="0" end="300" vehsPerHour="15.0" departLane="best" departSpeed="max"/>
  <flow id="flow_EN_w00" type="car" route="route_EN" begin="0" end="300" vehsPerHour="60.0" departLane="best" departSpeed="max"/>
  <flow id="flow_ES_w00" type="car" route="route_ES" begin="0" end="300" vehsPerHour="40.0" departLane="best" departSpeed="max"/>
  <flow id="flow_WE_w00" type="car" route="route_WE" begin="0" end="300" vehsPerHour="50.0" departLane="best" departSpeed="max"/>
  <flow id="flow_WN_w00" type="car" route="route_WN" begin="0" end="300" vehsPerHour="40.0" departLane="best" departSpeed="max"/>
  <flow id="flow_WS_w00" type="car" route="route_WS" begin="0" end="300" vehsPerHour="20.0" departLane="best" departSpeed="max"/>
  <flow id="flow_NS_w01" type="car" route="route_NS" begin="300" end="600" vehsPerHour="300.0" departLane="best" departSpeed="max"/>
  <flow id="flow_NS_t_w01" type="trotro" route="route_NS" begin="300" end="600" vehsPerHour="30.0" departLane="best" departSpeed="max"/>
  <flow id="flow_SN_w01" type="car" route="route_SN" begin="300" end="600" vehsPerHour="250.0" departLane="best" departSpeed="max"/>
  <flow id="flow_SN_t_w01" type="trotro" route="route_SN" begin="300" end="600" vehsPerHour="25.0" departLane="best" departSpeed="max"/>
  <flow id="flow_NE_w01" type="car" route="route_NE" begin="300" end="600" vehsPerHour="50.0" departLane="best" departSpeed="max"/>
  <flow id="flow_NW_w01" type="car" route="route_NW" begin="300" end="600" vehsPerHour="40.0" departLane="best" departSpeed="max"/>
  <flow id="flow_SE_w01" type="car" route="route_SE" begin="300" end="600" vehsPerHour="50.0" departLane="best" departSpeed="max"/>
  <flow id="flow_SW_w01" type="car" route="route_SW" begin="300" end="600" vehsPerHour="60.0" departLane="best" departSpeed="max"/>
  <flow id="flow_EW_w01" type="car" route="route_EW" begin="300" end="600" vehsPerHour="120.0" departLane="best" departSpeed="max"/>
  <flow id="flow_EW_t_w01" type="trotro" route="route_EW" begin="300" end="600" vehsPerHour="15.0" departLane="best" departSpeed="max"/>
  <flow id="flow_EN_w01" type="car" route="route_EN" begin="300" end="600" vehsPerHour="60.0" departLane="best" departSpeed="max"/>
  <flow id="flow_ES_w01" type="car" route="route_ES" begin="300" end="600" vehsPerHour="40.0" departLane="best" departSpeed="max"/>
  <flow id="flow_WE_w01" type="car" route="route_WE" begin="300" end="600" vehsPerHour="50.0" departLane="best" departSpeed="max"/>
  <flow id="flow_WN_w01" type="car" route="route_WN" begin="300" end="600" vehsPerHour="40.0" departLane="best" departSpeed="max"/>
  <flow id="flow_WS_w01" type="car" route="route_WS" begin="300" end="600" vehsPerHour="20.0" departLane="best" departSpeed="max"/>
  <flow id="flow_NS_w02" type="car" route="route_NS" begin="600" end="900" vehsPerHour="300.0" departLane="best" departSpeed="max"/>
  <flow id="flow_NS_t_w02" type="trotro" route="route_NS" begin="600" end="900" vehsPerHour="30.0" departLane="best" departSpeed="max"/>
  <flow id="flow_SN_w02" type="car" route="route_SN" begin="600" end="900" vehsPerHour="250.0" departLane="best" departSpeed="max"/>
  <flow id="flow_SN_t_w02" type="trotro" route="route_SN" begin="600" end="900" vehsPerHour="25.0" departLane="best" departSpeed="max"/>
  <flow id="flow_NE_w02" type="car" route="route_NE" begin="600" end="900" vehsPerHour="50.0" departLane="best" departSpeed="max"/>
  <flow id="flow_NW_w02" type="car" route="route_NW" begin="600" end="900" vehsPerHour="40.0" departLane="best" departSpeed="max"/>
  <flow id="flow_SE_w02" type="car" route="route_SE" begin="600" end="900" vehsPerHour="50.0" departLane="best" departSpeed="max"/>
  <flow id="flow_SW_w02" type="car" route="route_SW" begin="600" end="900" vehsPerHour="60.0" departLane="best" departSpeed="max"/>
  <flow id="flow_EW_w02" type="car" route="route_EW" begin="600" end="900" vehsPerHour="120.0" departLane="best" departSpeed="max"/>
  <flow id="flow_EW_t_w02" type="trotro" route="route_EW" begin="600" end="900" vehsPerHour="15.0" departLane="best" departSpeed="max"/>
  <flow id="flow_EN_w02" type="car" route="route_EN" begin="600" end="900" vehsPerHour="60.0" departLane="best" departSpeed="max"/>
  <flow id="flow_ES_w02" type="car" route="route_ES" begin="600" end="900" vehsPerHour="40.0" departLane="best" departSpeed="max"/>
  <flow id="flow_WE_w02" type="car" route="route_WE" begin="600" end="900" vehsPerHour="50.0" departLane="best" departSpeed="max"/>
  <flow id="flow_WN_w02" type="car" route="route_WN" begin="600" end="900" vehsPerHour="40.0" departLane="best" departSpeed="max"/>
  <flow id="flow_WS_w02" type="car" route="route_WS" begin="600" end="900" vehsPerHour="20.0" departLane="best" departSpeed="max"/>
  <flow id="flow_NS_w03" type="car" route="route_NS" begin="900" end="1200" vehsPerHour="350.8" departLane="best" departSpeed="max"/>
  <flow id="flow_NS_t_w03" type="trotro" route="route_NS" begin="900" end="1200" vehsPerHour="34.8" departLane="best" departSpeed="max"/>
  <flow id="flow_SN_w03" type="car" route="route_SN" begin="900" end="1200" vehsPerHour="237.8" departLane="best" departSpeed="max"/>
  <flow id="flow_SN_t_w03" type="trotro" route="route_SN" begin="900" end="1200" vehsPerHour="26.9" departLane="best" departSpeed="max"/>
  <flow id="flow_NE_w03" type="car" route="route_NE" begin="900" end="1200" vehsPerHour="57.6" departLane="best" departSpeed="max"/>
  <flow id="flow_NW_w03" type="car" route="route_NW" begin="900" end="1200" vehsPerHour="44.3" departLane="best" departSpeed="max"/>
  <flow id="flow_SE_w03" type="car" route="route_SE" begin="900" end="1200" vehsPerHour="56.4" departLane="best" departSpeed="max"/>
  <flow id="flow_SW_w03" type="car" route="route_SW" begin="900" end="1200" vehsPerHour="74.7" departLane="best" departSpeed="max"/>
  <flow id="flow_EW_w03" type="car" route="route_EW" begin="900" end="1200" vehsPerHour="134.3" departLane="best" departSpeed="max"/>
  <flow id="flow_EW_t_w03" type="trotro" route="route_EW" begin="900" end="1200" vehsPerHour="17.4" departLane="best" departSpeed="max"/>
  <flow id="flow_EN_w03" type="car" route="route_EN" begin="900" end="1200" vehsPerHour="72.2" departLane="best" departSpeed="max"/>
  <flow id="flow_ES_w03" type="car" route="route_ES" begin="900" end="1200" vehsPerHour="45.6" departLane="best" departSpeed="max"/>
  <flow id="flow_WE_w03" type="car" route="route_WE" begin="900" end="1200" vehsPerHour="53.9" departLane="best" departSpeed="max"/>
  <flow id="flow_WN_w03" type="car" route="route_WN" begin="900" end="1200" vehsPerHour="51.9" departLane="best" departSpeed="max"/>
  <flow id="flow_WS_w03" type="car" route="route_WS" begin="900" end="1200" vehsPerHour="22.8" departLane="best" departSpeed="max"/>
  <flow id="flow_NS_w04" type="car" route="route_NS" begin="1200" end="1500" vehsPerHour="452.5" departLane="best" departSpeed="max"/>
  <flow id="flow_NS_t_w04" type="trotro" route="route_NS" begin="1200" end="1500" vehsPerHour="44.5" departLane="best" departSpeed="max"/>
  <flow id="flow_SN_w04" type="car" route="route_SN" begin="1200" end="1500" vehsPerHour="213.2" departLane="best" departSpeed="max"/>
  <flow id="flow_SN_t_w04" type="trotro" route="route_SN" begin="1200" end="1500" vehsPerHour="30.8" departLane="best" departSpeed="max"/>
  <flow id="flow_NE_w04" type="car" route="route_NE" begin="1200" end="1500" vehsPerHour="72.9" departLane="best" departSpeed="max"/>
  <flow id="flow_NW_w04" type="car" route="route_NW" begin="1200" end="1500" vehsPerHour="53.0" departLane="best" departSpeed="max"/>
  <flow id="flow_SE_w04" type="car" route="route_SE" begin="1200" end="1500" vehsPerHour="69.1" departLane="best" departSpeed="max"/>
  <flow id="flow_SW_w04" type="car" route="route_SW" begin="1200" end="1500" vehsPerHour="104.1" departLane="best" departSpeed="max"/>
  <flow id="flow_EW_w04" type="car" route="route_EW" begin="1200" end="1500" vehsPerHour="162.8" departLane="best" departSpeed="max"/>
  <flow id="flow_EW_t_w04" type="trotro" route="route_EW" begin="1200" end="1500" vehsPerHour="22.2" departLane="best" departSpeed="max"/>
  <flow id="flow_EN_w04" type="car" route="route_EN" begin="1200" end="1500" vehsPerHour="96.5" departLane="best" departSpeed="max"/>
  <flow id="flow_ES_w04" type="car" route="route_ES" begin="1200" end="1500" vehsPerHour="56.8" departLane="best" departSpeed="max"/>
  <flow id="flow_WE_w04" type="car" route="route_WE" begin="1200" end="1500" vehsPerHour="61.5" departLane="best" departSpeed="max"/>
  <flow id="flow_WN_w04" type="car" route="route_WN" begin="1200" end="1500" vehsPerHour="75.7" departLane="best" departSpeed="max"/>
  <flow id="flow_WS_w04" type="car" route="route_WS" begin="1200" end="1500" vehsPerHour="28.4" departLane="best" departSpeed="max"/>
  <flow id="flow_NS_w05" type="car" route="route_NS" begin="1500" end="1800" vehsPerHour="517.8" departLane="best" departSpeed="max"/>
  <flow id="flow_NS_t_w05" type="trotro" route="route_NS" begin="1500" end="1800" vehsPerHour="50.7" departLane="best" departSpeed="max"/>
  <flow id="flow_SN_w05" type="car" route="route_SN" begin="1500" end="1800" vehsPerHour="197.5" departLane="best" departSpeed="max"/>
  <flow id="flow_SN_t_w05" type="trotro" route="route_SN" begin="1500" end="1800" vehsPerHour="33.2" departLane="best" departSpeed="max"/>
  <flow id="flow_NE_w05" type="car" route="route_NE" begin="1500" end="1800" vehsPerHour="82.7" departLane="best" departSpeed="max"/>
  <flow id="flow_NW_w05" type="car" route="route_NW" begin="1500" end="1800" vehsPerHour="58.6" departLane="best" departSpeed="max"/>
  <flow id="flow_SE_w05" type="car" route="route_SE" begin="1500" end="1800" vehsPerHour="77.3" departLane="best" departSpeed="max"/>
  <flow id="flow_SW_w05" type="car" route="route_SW" begin="1500" end="1800" vehsPerHour="123.0" departLane="best" departSpeed="max"/>
  <flow id="flow_EW_w05" type="car" route="route_EW" begin="1500" end="1800" vehsPerHour="181.2" departLane="best" departSpeed="max"/>
  <flow id="flow_EW_t_w05" type="trotro" route="route_EW" begin="1500" end="1800" vehsPerHour="25.4" departLane="best" departSpeed="max"/>
  <flow id="flow_EN_w05" type="car" route="route_EN" begin="1500" end="1800" vehsPerHour="112.2" departLane="best" departSpeed="max"/>
  <flow id="flow_ES_w05" type="car" route="route_ES" begin="1500" end="1800" vehsPerHour="64.0" departLane="best" departSpeed="max"/>
  <flow id="flow_WE_w05" type="car" route="route_WE" begin="1500" end="1800" vehsPerHour="66.5" departLane="best" departSpeed="max"/>
  <flow id="flow_WN_w05" type="car" route="route_WN" begin="1500" end="1800" vehsPerHour="91.0" departLane="best" departSpeed="max"/>
  <flow id="flow_WS_w05" type="car" route="route_WS" begin="1500" end="1800" vehsPerHour="32.0" departLane="best" departSpeed="max"/>
  <flow id="flow_NS_w06" type="car" route="route_NS" begin="1800" end="2100" vehsPerHour="546.8" departLane="best" departSpeed="max"/>
  <flow id="flow_NS_t_w06" type="trotro" route="route_NS" begin="1800" end="2100" vehsPerHour="53.5" departLane="best" departSpeed="max"/>
  <flow id="flow_SN_w06" type="car" route="route_SN" begin="1800" end="2100" vehsPerHour="190.5" departLane="best" departSpeed="max"/>
  <flow id="flow_SN_t_w06" type="trotro" route="route_SN" begin="1800" end="2100" vehsPerHour="34.3" departLane="best" departSpeed="max"/>
  <flow id="flow_NE_w06" type="car" route="route_NE" begin="1800" end="2100" vehsPerHour="87.1" departLane="best" departSpeed="max"/>
  <flow id="flow_NW_w06" type="car" route="route_NW" begin="1800" end="2100" vehsPerHour="61.1" departLane="best" departSpeed="max"/>
  <flow id="flow_SE_w06" type="car" route="route_SE" begin="1800" end="2100" vehsPerHour="80.9" departLane="best" departSpeed="max"/>
  <flow id="flow_SW_w06" type="car" route="route_SW" begin="1800" end="2100" vehsPerHour="131.4" departLane="best" departSpeed="max"/>
  <flow id="flow_EW_w06" type="car" route="route_EW" begin="1800" end="2100" vehsPerHour="189.4" departLane="best" departSpeed="max"/>
  <flow id="flow_EW_t_w06" type="trotro" route="route_EW" begin="1800" end="2100" vehsPerHour="26.7" departLane="best" departSpeed="max"/>
  <flow id="flow_EN_w06" type="car" route="route_EN" begin="1800" end="2100" vehsPerHour="119.2" departLane="best" departSpeed="max"/>
  <flow id="flow_ES_w06" type="car" route="route_ES" begin="1800" end="2100" vehsPerHour="67.2" departLane="best" departSpeed="max"/>
  <flow id="flow_WE_w06" type="car" route="route_WE" begin="1800" end="2100" vehsPerHour="68.7" departLane="best" departSpeed="max"/>
  <flow id="flow_WN_w06" type="car" route="route_WN" begin="1800" end="2100" vehsPerHour="97.8" departLane="best" departSpeed="max"/>
  <flow id="flow_WS_w06" type="car" route="route_WS" begin="1800" end="2100" vehsPerHour="33.6" departLane="best" departSpeed="max"/>
  <flow id="flow_NS_w07" type="car" route="route_NS" begin="2100" end="2400" vehsPerHour="575.9" departLane="best" departSpeed="max"/>
  <flow id="flow_NS_t_w07" type="trotro" route="route_NS" begin="2100" end="2400" vehsPerHour="56.2" departLane="best" departSpeed="max"/>
  <flow id="flow_SN_w07" type="car" route="route_SN" begin="2100" end="2400" vehsPerHour="183.5" departLane="best" departSpeed="max"/>
  <flow id="flow_SN_t_w07" type="trotro" route="route_SN" begin="2100" end="2400" vehsPerHour="35.4" departLane="best" departSpeed="max"/>
  <flow id="flow_NE_w07" type="car" route="route_NE" begin="2100" end="2400" vehsPerHour="91.4" departLane="best" departSpeed="max"/>
  <flow id="flow_NW_w07" type="car" route="route_NW" begin="2100" end="2400" vehsPerHour="63.6" departLane="best" departSpeed="max"/>
  <flow id="flow_SE_w07" type="car" route="route_SE" begin="2100" end="2400" vehsPerHour="84.6" departLane="best" departSpeed="max"/>
  <flow id="flow_SW_w07" type="car" route="route_SW" begin="2100" end="2400" vehsPerHour="139.8" departLane="best" departSpeed="max"/>
  <flow id="flow_EW_w07" type="car" route="route_EW" begin="2100" end="2400" vehsPerHour="197.5" departLane="best" departSpeed="max"/>
  <flow id="flow_EW_t_w07" type="trotro" route="route_EW" begin="2100" end="2400" vehsPerHour="28.1" departLane="best" departSpeed="max"/>
  <flow id="flow_EN_w07" type="car" route="route_EN" begin="2100" end="2400" vehsPerHour="126.1" departLane="best" departSpeed="max"/>
  <flow id="flow_ES_w07" type="car" route="route_ES" begin="2100" end="2400" vehsPerHour="70.4" departLane="best" departSpeed="max"/>
  <flow id="flow_WE_w07" type="car" route="route_WE" begin="2100" end="2400" vehsPerHour="70.9" departLane="best" departSpeed="max"/>
  <flow id="flow_WN_w07" type="car" route="route_WN" begin="2100" end="2400" vehsPerHour="104.6" departLane="best" departSpeed="max"/>
  <flow id="flow_WS_w07" type="car" route="route_WS" begin="2100" end="2400" vehsPerHour="35.2" departLane="best" departSpeed="max"/>
  <flow id="flow_NS_w08" type="car" route="route_NS" begin="2400" end="2700" vehsPerHour="590.4" departLane="best" departSpeed="max"/>
  <flow id="flow_NS_t_w08" type="trotro" route="route_NS" begin="2400" end="2700" vehsPerHour="57.6" departLane="best" departSpeed="max"/>
  <flow id="flow_SN_w08" type="car" route="route_SN" begin="2400" end="2700" vehsPerHour="180.0" departLane="best" departSpeed="max"/>
  <flow id="flow_SN_t_w08" type="trotro" route="route_SN" begin="2400" end="2700" vehsPerHour="36.0" departLane="best" departSpeed="max"/>
  <flow id="flow_NE_w08" type="car" route="route_NE" begin="2400" end="2700" vehsPerHour="93.6" departLane="best" departSpeed="max"/>
  <flow id="flow_NW_w08" type="car" route="route_NW" begin="2400" end="2700" vehsPerHour="64.8" departLane="best" departSpeed="max"/>
  <flow id="flow_SE_w08" type="car" route="route_SE" begin="2400" end="2700" vehsPerHour="86.4" departLane="best" departSpeed="max"/>
  <flow id="flow_SW_w08" type="car" route="route_SW" begin="2400" end="2700" vehsPerHour="144.0" departLane="best" departSpeed="max"/>
  <flow id="flow_EW_w08" type="car" route="route_EW" begin="2400" end="2700" vehsPerHour="201.6" departLane="best" departSpeed="max"/>
  <flow id="flow_EW_t_w08" type="trotro" route="route_EW" begin="2400" end="2700" vehsPerHour="28.8" departLane="best" departSpeed="max"/>
  <flow id="flow_EN_w08" type="car" route="route_EN" begin="2400" end="2700" vehsPerHour="129.6" departLane="best" departSpeed="max"/>
  <flow id="flow_ES_w08" type="car" route="route_ES" begin="2400" end="2700" vehsPerHour="72.0" departLane="best" departSpeed="max"/>
  <flow id="flow_WE_w08" type="car" route="route_WE" begin="2400" end="2700" vehsPerHour="72.0" departLane="best" departSpeed="max"/>
  <flow id="flow_WN_w08" type="car" route="route_WN" begin="2400" end="2700" vehsPerHour="108.0" departLane="best" departSpeed="max"/>
  <flow id="flow_WS_w08" type="car" route="route_WS" begin="2400" end="2700" vehsPerHour="36.0" departLane="best" departSpeed="max"/>
  <flow id="flow_NS_w09" type="car" route="route_NS" begin="2700" end="3000" vehsPerHour="590.4" departLane="best" departSpeed="max"/>
  <flow id="flow_NS_t_w09" type="trotro" route="route_NS" begin="2700" end="3000" vehsPerHour="57.6" departLane="best" departSpeed="max"/>
  <flow id="flow_SN_w09" type="car" route="route_SN" begin="2700" end="3000" vehsPerHour="180.0" departLane="best" departSpeed="max"/>
  <flow id="flow_SN_t_w09" type="trotro" route="route_SN" begin="2700" end="3000" vehsPerHour="36.0" departLane="best" departSpeed="max"/>
  <flow id="flow_NE_w09" type="car" route="route_NE" begin="2700" end="3000" vehsPerHour="93.6" departLane="best" departSpeed="max"/>
  <flow id="flow_NW_w09" type="car" route="route_NW" begin="2700" end="3000" vehsPerHour="64.8" departLane="best" departSpeed="max"/>
  <flow id="flow_SE_w09" type="car" route="route_SE" begin="2700" end="3000" vehsPerHour="86.4" departLane="best" departSpeed="max"/>
  <flow id="flow_SW_w09" type="car" route="route_SW" begin="2700" end="3000" vehsPerHour="144.0" departLane="best" departSpeed="max"/>
  <flow id="flow_EW_w09" type="car" route="route_EW" begin="2700" end="3000" vehsPerHour="201.6" departLane="best" departSpeed="max"/>
  <flow id="flow_EW_t_w09" type="trotro" route="route_EW" begin="2700" end="3000" vehsPerHour="28.8" departLane="best" departSpeed="max"/>
  <flow id="flow_EN_w09" type="car" route="route_EN" begin="2700" end="3000" vehsPerHour="129.6" departLane="best" departSpeed="max"/>
  <flow id="flow_ES_w09" type="car" route="route_ES" begin="2700" end="3000" vehsPerHour="72.0" departLane="best" departSpeed="max"/>
  <flow id="flow_WE_w09" type="car" route="route_WE" begin="2700" end="3000" vehsPerHour="72.0" departLane="best" departSpeed="max"/>
  <flow id="flow_WN_w09" type="car" route="route_WN" begin="2700" end="3000" vehsPerHour="108.0" departLane="best" departSpeed="max"/>
  <flow id="flow_WS_w09" type="car" route="route_WS" begin="2700" end="3000" vehsPerHour="36.0" departLane="best" departSpeed="max"/>
  <flow id="flow_NS_w10" type="car" route="route_NS" begin="3000" end="3300" vehsPerHour="554.1" departLane="best" departSpeed="max"/>
  <flow id="flow_NS_t_w10" type="trotro" route="route_NS" begin="3000" end="3300" vehsPerHour="54.1" departLane="best" departSpeed="max"/>
  <flow id="flow_SN_w10" type="car" route="route_SN" begin="3000" end="3300" vehsPerHour="188.8" departLane="best" departSpeed="max"/>
  <flow id="flow_SN_t_w10" type="trotro" route="route_SN" begin="3000" end="3300" vehsPerHour="34.6" departLane="best" departSpeed="max"/>
  <flow id="flow_NE_w10" type="car" route="route_NE" begin="3000" end="3300" vehsPerHour="88.1" departLane="best" departSpeed="max"/>
  <flow id="flow_NW_w10" type="car" route="route_NW" begin="3000" end="3300" vehsPerHour="61.7" departLane="best" departSpeed="max"/>
  <flow id="flow_SE_w10" type="car" route="route_SE" begin="3000" end="3300" vehsPerHour="81.9" departLane="best" departSpeed="max"/>
  <flow id="flow_SW_w10" type="car" route="route_SW" begin="3000" end="3300" vehsPerHour="133.5" departLane="best" departSpeed="max"/>
  <flow id="flow_EW_w10" type="car" route="route_EW" begin="3000" end="3300" vehsPerHour="191.4" departLane="best" departSpeed="max"/>
  <flow id="flow_EW_t_w10" type="trotro" route="route_EW" begin="3000" end="3300" vehsPerHour="27.1" departLane="best" departSpeed="max"/>
  <flow id="flow_EN_w10" type="car" route="route_EN" begin="3000" end="3300" vehsPerHour="120.9" departLane="best" departSpeed="max"/>
  <flow id="flow_ES_w10" type="car" route="route_ES" begin="3000" end="3300" vehsPerHour="68.0" departLane="best" departSpeed="max"/>
  <flow id="flow_WE_w10" type="car" route="route_WE" begin="3000" end="3300" vehsPerHour="69.2" departLane="best" departSpeed="max"/>
  <flow id="flow_WN_w10" type="car" route="route_WN" begin="3000" end="3300" vehsPerHour="99.5" departLane="best" departSpeed="max"/>
  <flow id="flow_WS_w10" type="car" route="route_WS" begin="3000" end="3300" vehsPerHour="34.0" departLane="best" departSpeed="max"/>
  <flow id="flow_NS_w11" type="car" route="route_NS" begin="3300" end="3600" vehsPerHour="481.5" departLane="best" departSpeed="max"/>
  <flow id="flow_NS_t_w11" type="trotro" route="route_NS" begin="3300" end="3600" vehsPerHour="47.2" departLane="best" departSpeed="max"/>
  <flow id="flow_SN_w11" type="car" route="route_SN" begin="3300" end="3600" vehsPerHour="206.2" departLane="best" departSpeed="max"/>
  <flow id="flow_SN_t_w11" type="trotro" route="route_SN" begin="3300" end="3600" vehsPerHour="31.9" departLane="best" departSpeed="max"/>
  <flow id="flow_NE_w11" type="car" route="route_NE" begin="3300" end="3600" vehsPerHour="77.2" departLane="best" departSpeed="max"/>
  <flow id="flow_NW_w11" type="car" route="route_NW" begin="3300" end="3600" vehsPerHour="55.5" departLane="best" departSpeed="max"/>
  <flow id="flow_SE_w11" type="car" route="route_SE" begin="3300" end="3600" vehsPerHour="72.8" departLane="best" departSpeed="max"/>
  <flow id="flow_SW_w11" type="car" route="route_SW" begin="3300" end="3600" vehsPerHour="112.5" departLane="best" departSpeed="max"/>
  <flow id="flow_EW_w11" type="car" route="route_EW" begin="3300" end="3600" vehsPerHour="171.0" departLane="best" departSpeed="max"/>
  <flow id="flow_EW_t_w11" type="trotro" route="route_EW" begin="3300" end="3600" vehsPerHour="23.6" departLane="best" departSpeed="max"/>
  <flow id="flow_EN_w11" type="car" route="route_EN" begin="3300" end="3600" vehsPerHour="103.5" departLane="best" departSpeed="max"/>
  <flow id="flow_ES_w11" type="car" route="route_ES" begin="3300" end="3600" vehsPerHour="60.0" departLane="best" departSpeed="max"/>
  <flow id="flow_WE_w11" type="car" route="route_WE" begin="3300" end="3600" vehsPerHour="63.8" departLane="best" departSpeed="max"/>
  <flow id="flow_WN_w11" type="car" route="route_WN" begin="3300" end="3600" vehsPerHour="82.5" departLane="best" departSpeed="max"/>
  <flow id="flow_WS_w11" type="car" route="route_WS" begin="3300" end="3600" vehsPerHour="30.0" departLane="best" departSpeed="max"/>
  <flow id="flow_NS_w12" type="car" route="route_NS" begin="3600" end="3900" vehsPerHour="408.9" departLane="best" departSpeed="max"/>
  <flow id="flow_NS_t_w12" type="trotro" route="route_NS" begin="3600" end="3900" vehsPerHour="40.4" departLane="best" departSpeed="max"/>
  <flow id="flow_SN_w12" type="car" route="route_SN" begin="3600" end="3900" vehsPerHour="223.8" departLane="best" departSpeed="max"/>
  <flow id="flow_SN_t_w12" type="trotro" route="route_SN" begin="3600" end="3900" vehsPerHour="29.1" departLane="best" departSpeed="max"/>
  <flow id="flow_NE_w12" type="car" route="route_NE" begin="3600" end="3900" vehsPerHour="66.3" departLane="best" departSpeed="max"/>
  <flow id="flow_NW_w12" type="car" route="route_NW" begin="3600" end="3900" vehsPerHour="49.3" departLane="best" departSpeed="max"/>
  <flow id="flow_SE_w12" type="car" route="route_SE" begin="3600" end="3900" vehsPerHour="63.7" departLane="best" departSpeed="max"/>
  <flow id="flow_SW_w12" type="car" route="route_SW" begin="3600" end="3900" vehsPerHour="91.5" departLane="best" departSpeed="max"/>
  <flow id="flow_EW_w12" type="car" route="route_EW" begin="3600" end="3900" vehsPerHour="150.6" departLane="best" departSpeed="max"/>
  <flow id="flow_EW_t_w12" type="trotro" route="route_EW" begin="3600" end="3900" vehsPerHour="20.2" departLane="best" departSpeed="max"/>
  <flow id="flow_EN_w12" type="car" route="route_EN" begin="3600" end="3900" vehsPerHour="86.1" departLane="best" departSpeed="max"/>
  <flow id="flow_ES_w12" type="car" route="route_ES" begin="3600" end="3900" vehsPerHour="52.0" departLane="best" departSpeed="max"/>
  <flow id="flow_WE_w12" type="car" route="route_WE" begin="3600" end="3900" vehsPerHour="58.2" departLane="best" departSpeed="max"/>
  <flow id="flow_WN_w12" type="car" route="route_WN" begin="3600" end="3900" vehsPerHour="65.5" departLane="best" departSpeed="max"/>
  <flow id="flow_WS_w12" type="car" route="route_WS" begin="3600" end="3900" vehsPerHour="26.0" departLane="best" departSpeed="max"/>
  <flow id="flow_NS_w13" type="car" route="route_NS" begin="3900" end="4200" vehsPerHour="336.3" departLane="best" departSpeed="max"/>
  <flow id="flow_NS_t_w13" type="trotro" route="route_NS" begin="3900" end="4200" vehsPerHour="33.5" departLane="best" departSpeed="max"/>
  <flow id="flow_SN_w13" type="car" route="route_SN" begin="3900" end="4200" vehsPerHour="241.2" departLane="best" departSpeed="max"/>
  <flow id="flow_SN_t_w13" type="trotro" route="route_SN" begin="3900" end="4200" vehsPerHour="26.4" departLane="best" departSpeed="max"/>
  <flow id="flow_NE_w13" type="car" route="route_NE" begin="3900" end="4200" vehsPerHour="55.5" departLane="best" departSpeed="max"/>
  <flow id="flow_NW_w13" type="car" route="route_NW" begin="3900" end="4200" vehsPerHour="43.1" departLane="best" departSpeed="max"/>
  <flow id="flow_SE_w13" type="car" route="route_SE" begin="3900" end="4200" vehsPerHour="54.5" departLane="best" departSpeed="max"/>
  <flow id="flow_SW_w13" type="car" route="route_SW" begin="3900" end="4200" vehsPerHour="70.5" departLane="best" departSpeed="max"/>
  <flow id="flow_EW_w13" type="car" route="route_EW" begin="3900" end="4200" vehsPerHour="130.2" departLane="best" departSpeed="max"/>