<?xml version="1.0" encoding="UTF-8"?>
<!--
  ATCS-GH | Achimota/Neoplan Junction - Evening Rush 17:00-19:00 — heavy S-to-N return flow
  Generated by generate_scenarios.py | ~2640 veh/hr total
-->
<routes>

<!-- Standard passenger car (Toyota Corolla / Kia Rio) -->
<vType id="car"
       accel="2.6" decel="4.5" emergencyDecel="9.0" sigma="0.5"
       length="4.5" minGap="2.5" maxSpeed="13.89"
       guiShape="passenger" color="0.6,0.6,0.9"/>

<!-- Trotro (shared minibus) — slower, longer -->
<vType id="trotro"
       accel="1.8" decel="3.5" emergencyDecel="7.0" sigma="0.7"
       length="7.0" minGap="3.0" maxSpeed="11.11"
       guiShape="bus/city" color="1.0,0.8,0.0"/>

<!-- Emergency vehicle (ambulance) -->
<vType id="emergency"
       accel="3.5" decel="6.0" emergencyDecel="9.0" sigma="0.1"
       length="5.5" minGap="2.0" maxSpeed="16.67"
       guiShape="emergency" color="1.0,0.0,0.0" speedFactor="1.2"/>

<!-- From North (Achimota Forest Rd — Nsawam direction) -->
<route id="route_NS" edges="ACH_N2J ACH_J2S"/>
<route id="route_NE" edges="ACH_N2J AGG_J2E"/>
<route id="route_NW" edges="ACH_N2J GUG_J2W"/>

<!-- From South (Achimota Forest Rd — CBD direction) -->
<route id="route_SN" edges="ACH_S2J ACH_J2N"/>
<route id="route_SE" edges="ACH_S2J AGG_J2E"/>
<route id="route_SW" edges="ACH_S2J GUG_J2W"/>

<!-- From East (Aggrey Street) -->
<route id="route_EW" edges="AGG_E2J GUG_J2W"/>
<route id="route_EN" edges="AGG_E2J ACH_J2N"/>
<route id="route_ES" edges="AGG_E2J ACH_J2S"/>

<!-- From West (Guggisberg Street) -->
<route id="route_WE" edges="GUG_W2J AGG_J2E"/>
<route id="route_WN" edges="GUG_W2J ACH_J2N"/>
<route id="route_WS" edges="GUG_W2J ACH_J2S"/>

  <!-- Flows: Evening Rush 17:00-19:00 — heavy S-to-N return flow -->
  <flow id="flow_NS" type="car" route="route_NS"
        begin="0" end="7200" vehsPerHour="250"
        departLane="best" departSpeed="max"/>
  <flow id="flow_NS_t" type="trotro" route="route_NS"
        begin="0" end="7200" vehsPerHour="50"
        departLane="best" departSpeed="max"/>
  <flow id="flow_SN" type="car" route="route_SN"
        begin="0" end="7200" vehsPerHour="820"
        departLane="best" departSpeed="max"/>
  <flow id="flow_SN_t" type="trotro" route="route_SN"
        begin="0" end="7200" vehsPerHour="80"
        departLane="best" departSpeed="max"/>
  <flow id="flow_NE" type="car" route="route_NE"
        begin="0" end="7200" vehsPerHour="120"
        departLane="best" departSpeed="max"/>
  <flow id="flow_NW" type="car" route="route_NW"
        begin="0" end="7200" vehsPerHour="200"
        departLane="best" departSpeed="max"/>
  <flow id="flow_SE" type="car" route="route_SE"
        begin="0" end="7200" vehsPerHour="90"
        departLane="best" departSpeed="max"/>
  <flow id="flow_SW" type="car" route="route_SW"
        begin="0" end="7200" vehsPerHour="130"
        departLane="best" departSpeed="max"/>
  <flow id="flow_EW" type="car" route="route_EW"
        begin="0" end="7200" vehsPerHour="280"
        departLane="best" departSpeed="max"/>
  <flow id="flow_EW_t" type="trotro" route="route_EW"
        begin="0" end="7200" vehsPerHour="40"
        departLane="best" departSpeed="max"/>
  <flow id="flow_EN" type="car" route="route_EN"
        begin="0" end="7200" vehsPerHour="100"
        departLane="best" departSpeed="max"/>
  <flow id="flow_ES" type="car" route="route_ES"
        begin="0" end="7200" vehsPerHour="180"
        departLane="best" departSpeed="max"/>
  <flow id="flow_WE" type="car" route="route_WE"
        begin="0" end="7200" vehsPerHour="100"
        departLane="best" departSpeed="max"/>
  <flow id="flow_WN" type="car" route="route_WN"
        begin="0" end="7200" vehsPerHour="50"
        departLane="best" departSpeed="max"/>
  <flow id="flow_WS" type="car" route="route_WS"
        begin="0" end="7200" vehsPerHour="150"
        departLane="best" departSpeed="max"/>

  <!-- Emergency vehicles (3 ambulances) -->
  <vehicle id="ambulance_1" type="emergency" route="route_SN"
           depart="200" departLane="0" departSpeed="max"
           color="1,0,0"/>
  <vehicle id="ambulance_2" type="emergency" route="route_EN"
           depart="900" departLane="0" departSpeed="max"
           color="1,0,0"/>
  <vehicle id="ambulance_3" type="emergency" route="route_NS"
           depart="2000" departLane="0" departSpeed="max"
           color="1,0,0"/>

</routes>
