<?xml version="1.0" encoding="UTF-8"?>
<!--
  ATCS-GH | Achimota/Neoplan Junction - Heavy Emergency — morning rush (ambulances deployed via UI)
  Generated by generate_scenarios.py | ~2640 veh/hr total
-->
<routes>

<!-- Standard passenger car — speedDev=0.2 gives realistic speed variation -->
<vType id="car"
       accel="2.6" decel="4.5" emergencyDecel="9.0" sigma="0.5"
       length="4.5" minGap="2.5" maxSpeed="19.44"
       speedFactor="1.0" speedDev="0.2"
       guiShape="passenger" color="0.6,0.6,0.9"
       jmCrossingGap="3.0"/>

<!-- Trotro (shared minibus) — slower mean, some variation between drivers -->
<vType id="trotro"
       accel="1.8" decel="3.5" emergencyDecel="7.0" sigma="0.7"
       length="7.0" minGap="3.0" maxSpeed="16.67"
       speedFactor="0.9" speedDev="0.15"
       guiShape="bus/city" color="1.0,0.8,0.0"
       jmCrossingGap="3.0"/>

<!-- Pedestrian — faster walking speed (Ghanaian crossing behavior) -->
<vType id="ped_fast" vClass="pedestrian"
       speed="3.80"
       length="0.25" minGap="0.5" width="0.65"/>

<!-- Emergency vehicle (ambulance) — always on the run! -->
<vType id="emergency" vClass="emergency"
       accel="4.5" decel="7.0" emergencyDecel="9.0" sigma="0.0"
       tau="0.3" length="5.5" minGap="1.0" maxSpeed="27.78"
       guiShape="emergency" color="1.0,0.0,0.0" speedFactor="1.4" speedDev="0.1"
       lcStrategic="100" lcPushy="1.0" lcAssertive="1.0"
       jmDriveAfterRedTime="3" jmDriveAfterYellowTime="3"/>

<!-- From North (Achimota Forest Rd — Nsawam direction) -->
<route id="route_NS" edges="ACH_N2J ACH_J2S"/>
<route id="route_NE" edges="ACH_N2J AGG_J2E"/>
<route id="route_NW" edges="ACH_N2J GUG_J2W"/>

<!-- From South (Achimota Forest Rd — CBD direction) -->
<route id="route_SN" edges="ACH_S2J ACH_J2N"/>
<route id="route_SE" edges="ACH_S2J AGG_J2E"/>
<route id="route_SW" edges="ACH_S2J GUG_J2W"/>

<!-- From East (Aggrey Street) -->
<route id="route_EW" edges="AGG_E2J GUG_J2W"/>
<route id="route_EN" edges="AGG_E2J ACH_J2N"/>
<route id="route_ES" edges="AGG_E2J ACH_J2S"/>

<!-- From West (Guggisberg Street) -->
<route id="route_WE" edges="GUG_W2J AGG_J2E"/>
<route id="route_WN" edges="GUG_W2J ACH_J2N"/>
<route id="route_WS" edges="GUG_W2J ACH_J2S"/>

  <!-- Flows: Heavy Emergency — morning rush (ambulances deployed via UI) -->
  <flow id="flow_NS" type="car" route="route_NS"
        begin="0" end="7200" vehsPerHour="820"
        departLane="best" departSpeed="max"/>
  <flow id="flow_NS_t" type="trotro" route="route_NS"
        begin="0" end="7200" vehsPerHour="80"
        departLane="best" departSpeed="max"/>
  <flow id="flow_SN" type="car" route="route_SN"
        begin="0" end="7200" vehsPerHour="250"
        departLane="best" departSpeed="max"/>
  <flow id="flow_SN_t" type="trotro" route="route_SN"
        begin="0" end="7200" vehsPerHour="50"
        departLane="best" departSpeed="max"/>
  <flow id="flow_NE" type="car" route="route_NE"
        begin="0" end="7200" vehsPerHour="130"
        departLane="best" departSpeed="max"/>
  <flow id="flow_NW" type="car" route="route_NW"
        begin="0" end="7200" vehsPerHour="90"
        departLane="best" departSpeed="max"/>
  <flow id="flow_SE" type="car" route="route_SE"
        begin="0" end="7200" vehsPerHour="120"
        departLane="best" departSpeed="max"/>
  <flow id="flow_SW" type="car" route="route_SW"
        begin="0" end="7200" vehsPerHour="200"
        departLane="best" departSpeed="max"/>
  <flow id="flow_EW" type="car" route="route_EW"
        begin="0" end="7200" vehsPerHour="280"
        departLane="best" departSpeed="max"/>
  <flow id="flow_EW_t" type="trotro" route="route_EW"
        begin="0" end="7200" vehsPerHour="40"
        departLane="best" departSpeed="max"/>
  <flow id="flow_EN" type="car" route="route_EN"
        begin="0" end="7200" vehsPerHour="180"
        departLane="best" departSpeed="max"/>
  <flow id="flow_ES" type="car" route="route_ES"
        begin="0" end="7200" vehsPerHour="100"
        departLane="best" departSpeed="max"/>
  <flow id="flow_WE" type="car" route="route_WE"
        begin="0" end="7200" vehsPerHour="100"
        departLane="best" departSpeed="max"/>
  <flow id="flow_WN" type="car" route="route_WN"
        begin="0" end="7200" vehsPerHour="150"
        departLane="best" departSpeed="max"/>
  <flow id="flow_WS" type="car" route="route_WS"
        begin="0" end="7200" vehsPerHour="50"
        departLane="best" departSpeed="max"/>

  <!-- Pedestrian crossing flows -->
  <personFlow id="ped_cross_N_e2w" type="ped_fast" begin="0" end="7200" perHour="60">
    <walk from="ACH_N2J" to="ACH_J2N"/>
  </personFlow>
  <personFlow id="ped_cross_N_w2e" type="ped_fast" begin="0" end="7200" perHour="60">
    <walk from="ACH_J2N" to="ACH_N2J"/>
  </personFlow>
  <personFlow id="ped_cross_S_e2w" type="ped_fast" begin="0" end="7200" perHour="60">
    <walk from="ACH_S2J" to="ACH_J2S"/>
  </personFlow>
  <personFlow id="ped_cross_S_w2e" type="ped_fast" begin="0" end="7200" perHour="60">
    <walk from="ACH_J2S" to="ACH_S2J"/>
  </personFlow>
  <personFlow id="ped_cross_E_n2s" type="ped_fast" begin="0" end="7200" perHour="36">
    <walk from="AGG_E2J" to="AGG_J2E"/>
  </personFlow>
  <personFlow id="ped_cross_E_s2n" type="ped_fast" begin="0" end="7200" perHour="36">
    <walk from="AGG_J2E" to="AGG_E2J"/>
  </personFlow>
  <personFlow id="ped_cross_W_n2s" type="ped_fast" begin="0" end="7200" perHour="25">
    <walk from="GUG_W2J" to="GUG_J2W"/>
  </personFlow>
  <personFlow id="ped_cross_W_s2n" type="ped_fast" begin="0" end="7200" perHour="25">
    <walk from="GUG_J2W" to="GUG_W2J"/>
  </personFlow>

</routes>
