<?xml version="1.0" encoding="UTF-8"?>
<!--
  ATCS-GH | Achimota/Neoplan Junction - Off-Peak midday 12:00-14:00 — low volume, balanced
  Generated by generate_scenarios.py | ~1150 veh/hr total
-->
<routes>

<!-- Standard passenger car (Toyota Corolla / Kia Rio) -->
<vType id="car"
       accel="2.6" decel="4.5" emergencyDecel="9.0" sigma="0.5"
       length="4.5" minGap="2.5" maxSpeed="13.89"
       guiShape="passenger" color="0.6,0.6,0.9"/>

<!-- Trotro (shared minibus) — slower, longer -->
<vType id="trotro"
       accel="1.8" decel="3.5" emergencyDecel="7.0" sigma="0.7"
       length="7.0" minGap="3.0" maxSpeed="11.11"
       guiShape="bus/city" color="1.0,0.8,0.0"/>

<!-- Emergency vehicle (ambulance) -->
<vType id="emergency"
       accel="3.5" decel="6.0" emergencyDecel="9.0" sigma="0.1"
       length="5.5" minGap="2.0" maxSpeed="16.67"
       guiShape="emergency" color="1.0,0.0,0.0" speedFactor="1.2"/>

<!-- From North (Achimota Forest Rd — Nsawam direction) -->
<route id="route_NS" edges="ACH_N2J ACH_J2S"/>
<route id="route_NE" edges="ACH_N2J AGG_J2E"/>
<route id="route_NW" edges="ACH_N2J GUG_J2W"/>

<!-- From South (Achimota Forest Rd — CBD direction) -->
<route id="route_SN" edges="ACH_S2J ACH_J2N"/>
<route id="route_SE" edges="ACH_S2J AGG_J2E"/>
<route id="route_SW" edges="ACH_S2J GUG_J2W"/>

<!-- From East (Aggrey Street) -->
<route id="route_EW" edges="AGG_E2J GUG_J2W"/>
<route id="route_EN" edges="AGG_E2J ACH_J2N"/>
<route id="route_ES" edges="AGG_E2J ACH_J2S"/>

<!-- From West (Guggisberg Street) -->
<route id="route_WE" edges="GUG_W2J AGG_J2E"/>
<route id="route_WN" edges="GUG_W2J ACH_J2N"/>
<route id="route_WS" edges="GUG_W2J ACH_J2S"/>

  <!-- Flows: Off-Peak midday 12:00-14:00 — low volume, balanced -->
  <flow id="flow_NS" type="car" route="route_NS"
        begin="0" end="7200" vehsPerHour="300"
        departLane="best" departSpeed="max"/>
  <flow id="flow_NS_t" type="trotro" route="route_NS"
        begin="0" end="7200" vehsPerHour="30"
        departLane="best" departSpeed="max"/>
  <flow id="flow_SN" type="car" route="route_SN"
        begin="0" end="7200" vehsPerHour="250"
        departLane="best" departSpeed="max"/>
  <flow id="flow_SN_t" type="trotro" route="route_SN"
        begin="0" end="7200" vehsPerHour="25"
        departLane="best" departSpeed="max"/>
  <flow id="flow_NE" type="car" route="route_NE"
        begin="0" end="7200" vehsPerHour="50"
        departLane="best" departSpeed="max"/>
  <flow id="flow_NW" type="car" route="route_NW"
        begin="0" end="7200" vehsPerHour="40"
        departLane="best" departSpeed="max"/>
  <flow id="flow_SE" type="car" route="route_SE"
        begin="0" end="7200" vehsPerHour="50"
        departLane="best" departSpeed="max"/>
  <flow id="flow_SW" type="car" route="route_SW"
        begin="0" end="7200" vehsPerHour="60"
        departLane="best" departSpeed="max"/>
  <flow id="flow_EW" type="car" route="route_EW"
        begin="0" end="7200" vehsPerHour="120"
        departLane="best" departSpeed="max"/>
  <flow id="flow_EW_t" type="trotro" route="route_EW"
        begin="0" end="7200" vehsPerHour="15"
        departLane="best" departSpeed="max"/>
  <flow id="flow_EN" type="car" route="route_EN"
        begin="0" end="7200" vehsPerHour="60"
        departLane="best" departSpeed="max"/>
  <flow id="flow_ES" type="car" route="route_ES"
        begin="0" end="7200" vehsPerHour="40"
        departLane="best" departSpeed="max"/>
  <flow id="flow_WE" type="car" route="route_WE"
        begin="0" end="7200" vehsPerHour="50"
        departLane="best" departSpeed="max"/>
  <flow id="flow_WN" type="car" route="route_WN"
        begin="0" end="7200" vehsPerHour="40"
        departLane="best" departSpeed="max"/>
  <flow id="flow_WS" type="car" route="route_WS"
        begin="0" end="7200" vehsPerHour="20"
        departLane="best" departSpeed="max"/>

  <!-- Emergency vehicles (1 ambulances) -->
  <vehicle id="ambulance_1" type="emergency" route="route_NS"
           depart="3600" departLane="1" departSpeed="max"
           color="1,0,0"/>

  <!-- Pedestrian crossing flows -->
  <personFlow id="ped_cross_N_e2w" begin="0" end="7200" perHour="43">
    <walk from="ACH_N2J" to="ACH_J2N"/>
  </personFlow>
  <personFlow id="ped_cross_N_w2e" begin="0" end="7200" perHour="43">
    <walk from="ACH_J2N" to="ACH_N2J"/>
  </personFlow>
  <personFlow id="ped_cross_S_e2w" begin="0" end="7200" perHour="43">
    <walk from="ACH_S2J" to="ACH_J2S"/>
  </personFlow>
  <personFlow id="ped_cross_S_w2e" begin="0" end="7200" perHour="43">
    <walk from="ACH_J2S" to="ACH_S2J"/>
  </personFlow>
  <personFlow id="ped_cross_E_n2s" begin="0" end="7200" perHour="26">
    <walk from="AGG_E2J" to="AGG_J2E"/>
  </personFlow>
  <personFlow id="ped_cross_E_s2n" begin="0" end="7200" perHour="26">
    <walk from="AGG_J2E" to="AGG_E2J"/>
  </personFlow>
  <personFlow id="ped_cross_W_n2s" begin="0" end="7200" perHour="17">
    <walk from="GUG_W2J" to="GUG_J2W"/>
  </personFlow>
  <personFlow id="ped_cross_W_s2n" begin="0" end="7200" perHour="17">
    <walk from="GUG_J2W" to="GUG_W2J"/>
  </personFlow>

</routes>
